@<TRIPOS>MOLECULE
*****
53 56 1
SMALL
GASTEIGER

@<TRIPOS>DICT

@<TRIPOS>ATOM
      1 CL          3.0972    2.4313   -0.4300 Cl        1 UNL1        0.0000
      2 C           3.3935    2.0680   -2.0982 C.ar      1 UNL1        0.0000
      3 C           3.3499    3.0776   -3.0767 C.ar      1 UNL1        0.0000
      4 N           3.0257    4.3934   -2.6732 N.am      1 UNL1        0.0000
      5 C           3.0240    5.5478   -3.4356 C.2       1 UNL1        0.0000
      6 O           3.3695    5.6418   -4.6105 O.2       1 UNL1        0.0000
      7 C           2.4825    6.7537   -2.6854 C.3       1 UNL1        0.0000
      8 S           3.5369    7.1356   -1.2515 S.3       1 UNL1        0.0000
      9 C           2.8984    8.6632   -0.7691 C.2       1 UNL1        0.0000
     10 C           1.7049    9.1422   -0.2787 C.2       1 UNL1        0.0000
     11 S           0.2678    8.2301    0.0460 S.o2      1 UNL1        0.0000
     12 O          -0.3434    8.0395   -1.2575 O.2       1 UNL1        0.0000
     13 O           0.7056    7.1045    0.8496 O.2       1 UNL1        0.0000
     14 C          -0.7803    9.2649    1.0263 C.ar      1 UNL1        0.0000
     15 C          -1.6282   10.1812    0.3956 C.ar      1 UNL1        0.0000
     16 C          -2.4844   10.9680    1.1661 C.ar      1 UNL1        0.0000
     17 C          -2.4997   10.8300    2.5551 C.ar      1 UNL1        0.0000
     18 C          -1.6624    9.9036    3.1793 C.ar      1 UNL1        0.0000
     19 C          -0.8025    9.1130    2.4163 C.ar      1 UNL1        0.0000
     20 N           1.7824   10.5171   -0.1113 N.2       1 UNL1        0.0000
     21 C           3.0036   10.8720   -0.4768 C.2       1 UNL1        0.0000
     22 C           3.5288   12.2422   -0.5131 C.ar      1 UNL1        0.0000
     23 C           2.6774   13.3085   -0.1843 C.ar      1 UNL1        0.0000
     24 C           3.1282   14.6302   -0.2282 C.ar      1 UNL1        0.0000
     25 C           4.4410   14.9053   -0.6004 C.ar      1 UNL1        0.0000
     26 C           5.3023   13.8602   -0.9247 C.ar      1 UNL1        0.0000
     27 C           4.8507   12.5369   -0.8810 C.ar      1 UNL1        0.0000
     28 N           3.7163    9.7544   -0.8480 N.pl3     1 UNL1        0.0000
     29 H           4.6723    9.7354   -1.1685 H         1 UNL1        0.0000
     30 C           3.6067    2.7261   -4.4034 C.ar      1 UNL1        0.0000
     31 C           3.8917    1.3987   -4.7468 C.ar      1 UNL1        0.0000
     32 C           3.9184    0.3953   -3.7728 C.ar      1 UNL1        0.0000
     33 C           4.2452   -1.0181   -4.1528 C.3       1 UNL1        0.0000
     34 C           3.6817    0.7428   -2.4396 C.ar      1 UNL1        0.0000
     35 H           2.8294    4.5026   -1.6806 H         1 UNL1        0.0000
     36 H           1.4613    6.5333   -2.3690 H         1 UNL1        0.0000
     37 H           2.4644    7.6112   -3.3683 H         1 UNL1        0.0000
     38 H          -1.6248   10.2893   -0.6868 H         1 UNL1        0.0000
     39 H          -3.1428   11.6868    0.6843 H         1 UNL1        0.0000
     40 H          -3.1698   11.4434    3.1529 H         1 UNL1        0.0000
     41 H          -1.6841    9.7954    4.2611 H         1 UNL1        0.0000
     42 H          -0.1609    8.3868    2.9103 H         1 UNL1        0.0000
     43 H           1.6462   13.1116    0.1055 H         1 UNL1        0.0000
     44 H           2.4513   15.4416    0.0260 H         1 UNL1        0.0000
     45 H           4.7923   15.9332   -0.6376 H         1 UNL1        0.0000
     46 H           6.3281   14.0748   -1.2146 H         1 UNL1        0.0000
     47 H           5.5571   11.7553   -1.1425 H         1 UNL1        0.0000
     48 H           3.5832    3.4595   -5.2036 H         1 UNL1        0.0000
     49 H           4.0872    1.1563   -5.7902 H         1 UNL1        0.0000
     50 H           3.8973   -1.7232   -3.3905 H         1 UNL1        0.0000
     51 H           5.3269   -1.1346   -4.2691 H         1 UNL1        0.0000
     52 H           3.7527   -1.2871   -5.0932 H         1 UNL1        0.0000
     53 H           3.7162   -0.0188   -1.6640 H         1 UNL1        0.0000
@<TRIPOS>BOND
     1    1    2 1
     2    2    3 ar
     3    2   34 ar
     4    3    4 1
     5    3   30 ar
     6    4   35 1
     7    4    5 am
     8    5    6 2
     9    5    7 1
    10    7    8 1
    11    7   36 1
    12    7   37 1
    13    8    9 1
    14    9   10 2
    15    9   28 1
    16   10   11 1
    17   10   20 1
    18   11   12 2
    19   11   13 2
    20   11   14 1
    21   14   15 ar
    22   14   19 ar
    23   15   38 1
    24   15   16 ar
    25   16   39 1
    26   16   17 ar
    27   17   40 1
    28   17   18 ar
    29   18   19 ar
    30   18   41 1
    31   19   42 1
    32   20   21 2
    33   21   28 1
    34   21   22 1
    35   22   23 ar
    36   22   27 ar
    37   23   24 ar
    38   23   43 1
    39   24   44 1
    40   24   25 ar
    41   25   26 ar
    42   25   45 1
    43   26   27 ar
    44   26   46 1
    45   27   47 1
    46   28   29 1
    47   30   31 ar
    48   30   48 1
    49   31   49 1
    50   31   32 ar
    51   32   33 1
    52   32   34 ar
    53   33   50 1
    54   33   52 1
    55   33   51 1
    56   34   53 1
@<TRIPOS>SUBSTRUCTURE
1 UNL1 1
@<TRIPOS>COMMENT
0.0000



