@<TRIPOS>MOLECULE
*****
58 61 1
SMALL
GASTEIGER

@<TRIPOS>DICT

@<TRIPOS>ATOM
      1 S           1.6502   -0.8581   -0.1886 S.3       1 UNL1        0.0000
      2 C           0.9976    0.4274    0.9199 C.3       1 UNL1        0.0000
      3 C           1.0233    1.8578    0.3899 C.2       1 UNL1        0.0000
      4 O           0.8088    2.7840    1.1731 O.2       1 UNL1        0.0000
      5 N           1.2417    1.9916   -0.9672 N.am      1 UNL1        0.0000
      6 C           1.2311    3.1852   -1.7216 C.ar      1 UNL1        0.0000
      7 C           1.8848    3.2154   -2.9705 C.ar      1 UNL1        0.0000
      8 C           2.6235    2.0281   -3.5268 C.3       1 UNL1        0.0000
      9 C           1.8516    4.3962   -3.7319 C.ar      1 UNL1        0.0000
     10 C           1.1843    5.5301   -3.2691 C.ar      1 UNL1        0.0000
     11 C           0.5352    5.5075   -2.0347 C.ar      1 UNL1        0.0000
     12 C          -0.2314    6.7055   -1.5583 C.3       1 UNL1        0.0000
     13 C           0.5574    4.3299   -1.2749 C.ar      1 UNL1        0.0000
     14 C           3.3484   -0.5406   -0.0494 C.2       1 UNL1        0.0000
     15 N           3.8048    0.6538    0.0899 N.2       1 UNL1        0.0000
     16 C           5.1693    0.7848    0.1768 C.2       1 UNL1        0.0000
     17 C           6.0344   -0.2387    0.0998 C.2       1 UNL1        0.0000
     18 C           5.4736   -1.5946   -0.0653 C.2       1 UNL1        0.0000
     19 O           6.1799   -2.5956   -0.1138 O.2       1 UNL1        0.0000
     20 N           4.1144   -1.6559   -0.1345 N.am      1 UNL1        0.0000
     21 C           7.5201   -0.0960    0.2326 C.3       1 UNL1        0.0000
     22 N           8.0052    1.3077    0.2713 N.4       1 UNL1        1.0000
     23 C           9.3875    1.3143    0.7924 C.3       1 UNL1        0.0000
     24 C          10.0753    2.6656    0.8483 C.ar      1 UNL1        0.0000
     25 C          10.9801    2.9282    1.8932 C.ar      1 UNL1        0.0000
     26 C          11.6429    4.1536    1.9703 C.ar      1 UNL1        0.0000
     27 C          11.4091    5.1188    1.0000 C.ar      1 UNL1        0.0000
     28 F          12.0365    6.2995    1.0812 F         1 UNL1        0.0000
     29 C          10.5387    4.8751   -0.0553 C.ar      1 UNL1        0.0000
     30 C           9.8845    3.6439   -0.1410 C.ar      1 UNL1        0.0000
     31 C           7.0927    2.1406    1.0756 C.3       1 UNL1        0.0000
     32 C           5.6935    2.1723    0.4376 C.3       1 UNL1        0.0000
     33 H           1.5437    0.3956    1.8687 H         1 UNL1        0.0000
     34 H          -0.0504    0.1850    1.1249 H         1 UNL1        0.0000
     35 H           1.6327    1.1729   -1.4143 H         1 UNL1        0.0000
     36 H           3.3144    1.6169   -2.7841 H         1 UNL1        0.0000
     37 H           3.2267    2.3029   -4.3989 H         1 UNL1        0.0000
     38 H           1.9138    1.2547   -3.8367 H         1 UNL1        0.0000
     39 H           2.3521    4.4424   -4.6969 H         1 UNL1        0.0000
     40 H           1.1719    6.4298   -3.8800 H         1 UNL1        0.0000
     41 H           0.3188    7.6268   -1.7753 H         1 UNL1        0.0000
     42 H          -0.3929    6.6692   -0.4758 H         1 UNL1        0.0000
     43 H          -1.2065    6.7455   -2.0540 H         1 UNL1        0.0000
     44 H           0.0134    4.3173   -0.3343 H         1 UNL1        0.0000
     45 H           3.6834   -2.5609   -0.2389 H         1 UNL1        0.0000
     46 H           8.0066   -0.5962   -0.6138 H         1 UNL1        0.0000
     47 H           7.8180   -0.6267    1.1473 H         1 UNL1        0.0000
     48 H          10.0128    0.6755    0.1546 H         1 UNL1        0.0000
     49 H           9.3972    0.8746    1.7991 H         1 UNL1        0.0000
     50 H          11.1730    2.1767    2.6562 H         1 UNL1        0.0000
     51 H          12.3369    4.3596    2.7786 H         1 UNL1        0.0000
     52 H          10.3739    5.6435   -0.8035 H         1 UNL1        0.0000
     53 H           9.2071    3.4560   -0.9718 H         1 UNL1        0.0000
     54 H           7.4425    3.1768    1.1312 H         1 UNL1        0.0000
     55 H           7.0297    1.7663    2.1061 H         1 UNL1        0.0000
     56 H           5.7219    2.7243   -0.5109 H         1 UNL1        0.0000
     57 H           5.0144    2.7119    1.1084 H         1 UNL1        0.0000
     58 H           8.0185    1.6908   -0.7384 H         1 UNL1        0.0000
@<TRIPOS>BOND
     1    1   14 1
     2    1    2 1
     3    2    3 1
     4    2   34 1
     5    2   33 1
     6    3    4 2
     7    3    5 am
     8    5    6 1
     9    5   35 1
    10    6   13 ar
    11    6    7 ar
    12    7    8 1
    13    7    9 ar
    14    8   36 1
    15    8   37 1
    16    8   38 1
    17    9   39 1
    18    9   10 ar
    19   10   40 1
    20   10   11 ar
    21   11   13 ar
    22   11   12 1
    23   12   41 1
    24   12   42 1
    25   12   43 1
    26   13   44 1
    27   14   20 1
    28   14   15 2
    29   15   16 1
    30   16   17 2
    31   16   32 1
    32   17   18 1
    33   17   21 1
    34   18   19 2
    35   18   20 am
    36   20   45 1
    37   21   46 1
    38   21   47 1
    39   21   22 1
    40   22   23 1
    41   22   31 1
    42   23   24 1
    43   23   48 1
    44   23   49 1
    45   24   25 ar
    46   24   30 ar
    47   25   50 1
    48   25   26 ar
    49   26   51 1
    50   26   27 ar
    51   27   29 ar
    52   27   28 1
    53   29   30 ar
    54   29   52 1
    55   30   53 1
    56   31   32 1
    57   31   54 1
    58   31   55 1
    59   32   56 1
    60   32   57 1
    61   22   58 1
@<TRIPOS>SUBSTRUCTURE
1 UNL1 1
@<TRIPOS>COMMENT
0.0000



