@<TRIPOS>MOLECULE
*****
66 69 1
SMALL
GASTEIGER

@<TRIPOS>DICT

@<TRIPOS>ATOM
      1 O           0.4091    4.0732   -0.7660 O.3       1 UNL1        0.0000
      2 C           0.0231    2.8802   -0.0662 C.3       1 UNL1        0.0000
      3 C          -1.5084    2.9144    0.0693 C.3       1 UNL1        0.0000
      4 O          -2.0867    2.9914   -1.2429 O.3       1 UNL1        0.0000
      5 C          -2.0183    1.6477    0.7997 C.3       1 UNL1        0.0000
      6 N          -3.4915    1.4787    0.8803 N.4       1 UNL1        1.0000
      7 C          -3.8942    0.1725    1.4712 C.3       1 UNL1        0.0000
      8 C          -3.4170   -1.0162    0.6218 C.3       1 UNL1        0.0000
      9 C          -3.4970   -0.0396    2.9366 C.3       1 UNL1        0.0000
     10 C          -4.1259    2.6475    1.5377 C.3       1 UNL1        0.0000
     11 C          -5.6380    2.4875    1.5868 C.2       1 UNL1        0.0000
     12 N          -6.2651    2.4892    2.7222 N.2       1 UNL1        0.0000
     13 C          -7.5898    2.2037    2.6316 C.2       1 UNL1        0.0000
     14 S          -8.5478    2.1068    4.0351 S.3       1 UNL1        0.0000
     15 C          -9.9015    1.5806    3.1396 C.2       1 UNL1        0.0000
     16 C          -9.6607    1.5062    1.7766 C.2       1 UNL1        0.0000
     17 C         -10.6960    0.9791    0.8822 C.ar      1 UNL1        0.0000
     18 C         -12.0431    1.3328    1.0497 C.ar      1 UNL1        0.0000
     19 C         -13.0373    0.7782    0.2355 C.ar      1 UNL1        0.0000
     20 C         -12.7040   -0.1377   -0.7664 C.ar      1 UNL1        0.0000
     21 C         -13.7548   -0.7108   -1.6694 C.3       1 UNL1        0.0000
     22 C         -11.3612   -0.4796   -0.9490 C.ar      1 UNL1        0.0000
     23 C         -10.3710    0.0604   -0.1221 C.ar      1 UNL1        0.0000
     24 C          -8.3087    1.9176    1.4841 C.2       1 UNL1        0.0000
     25 C          -7.5902    2.0247    0.2229 C.2       1 UNL1        0.0000
     26 O          -8.0875    1.8703   -0.8876 O.2       1 UNL1        0.0000
     27 N          -6.2513    2.3065    0.3672 N.am      1 UNL1        0.0000
     28 C           1.6496    4.0569   -1.3468 C.ar      1 UNL1        0.0000
     29 C           2.4112    5.2339   -1.2564 C.ar      1 UNL1        0.0000
     30 C           1.9045    6.4352   -0.5088 C.3       1 UNL1        0.0000
     31 C           3.6444    5.3052   -1.9232 C.ar      1 UNL1        0.0000
     32 C           4.1174    4.2204   -2.6605 C.ar      1 UNL1        0.0000
     33 C           3.3551    3.0602   -2.7529 C.ar      1 UNL1        0.0000
     34 C           2.1188    2.9827   -2.1092 C.ar      1 UNL1        0.0000
     35 H           0.4980    2.8784    0.9218 H         1 UNL1        0.0000
     36 H           0.3074    1.9710   -0.6022 H         1 UNL1        0.0000
     37 H          -1.7973    3.8257    0.6035 H         1 UNL1        0.0000
     38 H          -1.5869    3.6869   -1.7130 H         1 UNL1        0.0000
     39 H          -1.5774    1.6282    1.8035 H         1 UNL1        0.0000
     40 H          -1.6102    0.7956    0.2455 H         1 UNL1        0.0000
     41 H          -4.9874    0.1035    1.4264 H         1 UNL1        0.0000
     42 H          -2.3426   -1.1979    0.7253 H         1 UNL1        0.0000
     43 H          -3.6447   -0.8595   -0.4384 H         1 UNL1        0.0000
     44 H          -3.9315   -1.9328    0.9327 H         1 UNL1        0.0000
     45 H          -2.4115   -0.0826    3.0661 H         1 UNL1        0.0000
     46 H          -3.9087   -0.9866    3.3043 H         1 UNL1        0.0000
     47 H          -3.8913    0.7501    3.5828 H         1 UNL1        0.0000
     48 H          -3.9455    3.5565    0.9533 H         1 UNL1        0.0000
     49 H          -3.7355    2.8088    2.5484 H         1 UNL1        0.0000
     50 H         -10.8072    1.3246    3.6727 H         1 UNL1        0.0000
     51 H         -12.3396    2.0444    1.8166 H         1 UNL1        0.0000
     52 H         -14.0737    1.0681    0.3927 H         1 UNL1        0.0000
     53 H         -14.7540   -0.6043   -1.2346 H         1 UNL1        0.0000
     54 H         -13.5809   -1.7802   -1.8296 H         1 UNL1        0.0000
     55 H         -13.7388   -0.1971   -2.6356 H         1 UNL1        0.0000
     56 H         -11.0718   -1.1728   -1.7358 H         1 UNL1        0.0000
     57 H          -9.3425   -0.2532   -0.2805 H         1 UNL1        0.0000
     58 H          -5.6835    2.2809   -0.4704 H         1 UNL1        0.0000
     59 H           1.1462    6.9538   -1.1036 H         1 UNL1        0.0000
     60 H           2.7155    7.1396   -0.2945 H         1 UNL1        0.0000
     61 H           1.4728    6.1424    0.4538 H         1 UNL1        0.0000
     62 H           4.2401    6.2146   -1.8808 H         1 UNL1        0.0000
     63 H           5.0706    4.2883   -3.1784 H         1 UNL1        0.0000
     64 H           3.7103    2.2224   -3.3474 H         1 UNL1        0.0000
     65 H           1.5247    2.0872   -2.2579 H         1 UNL1        0.0000
     66 H          -3.8511    1.4724   -0.1381 H         1 UNL1        0.0000
@<TRIPOS>BOND
     1    1    2 1
     2    1   28 1
     3    2    3 1
     4    2   35 1
     5    2   36 1
     6    3    5 1
     7    3   37 1
     8    3    4 1
     9    4   38 1
    10    5   39 1
    11    5   40 1
    12    5    6 1
    13    6   10 1
    14    6    7 1
    15    7    8 1
    16    7    9 1
    17    7   41 1
    18    8   42 1
    19    8   43 1
    20    8   44 1
    21    9   47 1
    22    9   45 1
    23    9   46 1
    24   10   11 1
    25   10   48 1
    26   10   49 1
    27   11   12 2
    28   11   27 1
    29   12   13 1
    30   13   14 1
    31   13   24 2
    32   14   15 1
    33   15   16 2
    34   15   50 1
    35   16   17 1
    36   16   24 1
    37   17   18 ar
    38   17   23 ar
    39   18   19 ar
    40   18   51 1
    41   19   52 1
    42   19   20 ar
    43   20   21 1
    44   20   22 ar
    45   21   53 1
    46   21   54 1
    47   21   55 1
    48   22   56 1
    49   22   23 ar
    50   23   57 1
    51   24   25 1
    52   25   27 am
    53   25   26 2
    54   27   58 1
    55   28   29 ar
    56   28   34 ar
    57   29   30 1
    58   29   31 ar
    59   30   60 1
    60   30   61 1
    61   30   59 1
    62   31   32 ar
    63   31   62 1
    64   32   33 ar
    65   32   63 1
    66   33   34 ar
    67   33   64 1
    68   34   65 1
    69    6   66 1
@<TRIPOS>SUBSTRUCTURE
1 UNL1 1
@<TRIPOS>COMMENT
0.0000



