@<TRIPOS>MOLECULE
*****
55 58 1
SMALL
GASTEIGER

@<TRIPOS>DICT

@<TRIPOS>ATOM
      1 S           5.5300   -2.5461    1.5400 S.3       1 UNL1        0.0000
      2 C           5.8772   -3.3672   -0.0413 C.3       1 UNL1        0.0000
      3 C           5.2962   -4.7743   -0.0977 C.2       1 UNL1        0.0000
      4 O           5.9395   -5.6824   -0.6187 O.2       1 UNL1        0.0000
      5 N           4.0068   -4.8747    0.3961 N.am      1 UNL1        0.0000
      6 C           3.1511   -5.9941    0.3691 C.ar      1 UNL1        0.0000
      7 C           3.4586   -7.1979   -0.2705 C.ar      1 UNL1        0.0000
      8 C           2.5412   -8.2647   -0.2840 C.ar      1 UNL1        0.0000
      9 C           2.8610   -9.5583   -0.9923 C.3       1 UNL1        0.0000
     10 F           4.1262   -9.6220   -1.4899 F         1 UNL1        0.0000
     11 F           2.7262  -10.6433   -0.1785 F         1 UNL1        0.0000
     12 F           2.0325   -9.7852   -2.0503 F         1 UNL1        0.0000
     13 C           1.3035   -8.1094    0.3570 C.ar      1 UNL1        0.0000
     14 C           0.9912   -6.9151    1.0014 C.ar      1 UNL1        0.0000
     15 C           1.9105   -5.8641    1.0057 C.ar      1 UNL1        0.0000
     16 C           6.3717   -1.0625    1.2319 C.2       1 UNL1        0.0000
     17 N           5.8935   -0.1544    0.4514 N.2       1 UNL1        0.0000
     18 C           6.6326    1.0057    0.3458 C.2       1 UNL1        0.0000
     19 C           7.8039    1.2199    0.9681 C.2       1 UNL1        0.0000
     20 C           8.3387    0.1315    1.8114 C.2       1 UNL1        0.0000
     21 O           9.4039    0.2190    2.4062 O.2       1 UNL1        0.0000
     22 N           7.5430   -0.9695    1.9062 N.am      1 UNL1        0.0000
     23 C           8.5738    2.5079    0.9257 C.3       1 UNL1        0.0000
     24 N           8.0375    3.5223   -0.0111 N.4       1 UNL1        1.0000
     25 C           8.4986    4.8777    0.3541 C.3       1 UNL1        0.0000
     26 C           9.9991    5.0695    0.3093 C.ar      1 UNL1        0.0000
     27 C          10.6971    4.9702   -0.9022 C.ar      1 UNL1        0.0000
     28 C          12.0756    5.1881   -0.9454 C.ar      1 UNL1        0.0000
     29 C          12.7706    5.5045    0.2208 C.ar      1 UNL1        0.0000
     30 C          12.0895    5.5990    1.4324 C.ar      1 UNL1        0.0000
     31 C          10.7111    5.3830    1.4775 C.ar      1 UNL1        0.0000
     32 C           6.5643    3.4982   -0.0316 C.3       1 UNL1        0.0000
     33 C           6.0198    2.1252   -0.4557 C.3       1 UNL1        0.0000
     34 H           6.9633   -3.4418   -0.1595 H         1 UNL1        0.0000
     35 H           5.4663   -2.7898   -0.8748 H         1 UNL1        0.0000
     36 H           3.6611   -4.0525    0.8811 H         1 UNL1        0.0000
     37 H           4.4090   -7.3335   -0.7806 H         1 UNL1        0.0000
     38 H           0.5787   -8.9226    0.3514 H         1 UNL1        0.0000
     39 H           0.0301   -6.7997    1.4970 H         1 UNL1        0.0000
     40 H           1.6391   -4.9417    1.5134 H         1 UNL1        0.0000
     41 H           7.8522   -1.7254    2.4959 H         1 UNL1        0.0000
     42 H           9.6068    2.2865    0.6305 H         1 UNL1        0.0000
     43 H           8.5952    2.9076    1.9483 H         1 UNL1        0.0000
     44 H           8.1206    5.1528    1.3486 H         1 UNL1        0.0000
     45 H           8.0689    5.6101   -0.3429 H         1 UNL1        0.0000
     46 H          10.1638    4.7226   -1.8175 H         1 UNL1        0.0000
     47 H          12.6072    5.1121   -1.8902 H         1 UNL1        0.0000
     48 H          13.8431    5.6761    0.1855 H         1 UNL1        0.0000
     49 H          12.6313    5.8433    2.3425 H         1 UNL1        0.0000
     50 H          10.1964    5.4653    2.4320 H         1 UNL1        0.0000
     51 H           6.1888    4.2444   -0.7429 H         1 UNL1        0.0000
     52 H           6.1609    3.7630    0.9559 H         1 UNL1        0.0000
     53 H           6.2186    1.9529   -1.5207 H         1 UNL1        0.0000
     54 H           4.9309    2.1301   -0.3237 H         1 UNL1        0.0000
     55 H           8.3979    3.2944   -1.0034 H         1 UNL1        0.0000
@<TRIPOS>BOND
     1    1   16 1
     2    1    2 1
     3    2    3 1
     4    2   34 1
     5    2   35 1
     6    3    4 2
     7    3    5 am
     8    5    6 1
     9    5   36 1
    10    6    7 ar
    11    6   15 ar
    12    7   37 1
    13    7    8 ar
    14    8    9 1
    15    8   13 ar
    16    9   10 1
    17    9   11 1
    18    9   12 1
    19   13   38 1
    20   13   14 ar
    21   14   15 ar
    22   14   39 1
    23   15   40 1
    24   16   17 2
    25   16   22 1
    26   17   18 1
    27   18   19 2
    28   18   33 1
    29   19   20 1
    30   19   23 1
    31   20   21 2
    32   20   22 am
    33   22   41 1
    34   23   42 1
    35   23   43 1
    36   23   24 1
    37   24   25 1
    38   24   32 1
    39   25   44 1
    40   25   26 1
    41   25   45 1
    42   26   31 ar
    43   26   27 ar
    44   27   28 ar
    45   27   46 1
    46   28   29 ar
    47   28   47 1
    48   29   30 ar
    49   29   48 1
    50   30   31 ar
    51   30   49 1
    52   31   50 1
    53   32   33 1
    54   32   51 1
    55   32   52 1
    56   33   53 1
    57   33   54 1
    58   24   55 1
@<TRIPOS>SUBSTRUCTURE
1 UNL1 1
@<TRIPOS>COMMENT
0.0000



