@<TRIPOS>MOLECULE
*****
41 44 1
SMALL
GASTEIGER

@<TRIPOS>DICT

@<TRIPOS>ATOM
      1 BR         -2.3587   -9.8389    3.4665 Br        1 UNL1        0.0000
      2 C          -1.0696  -10.5835    4.6370 C.ar      1 UNL1        0.0000
      3 C           0.2298  -10.8667    4.2092 C.ar      1 UNL1        0.0000
      4 O           0.5909  -10.5924    2.8751 O.3       1 UNL1        0.0000
      5 C           1.8612  -10.8573    2.3793 C.2       1 UNL1        0.0000
      6 O           2.1466  -10.6183    1.2080 O.2       1 UNL1        0.0000
      7 C           2.8476  -11.4393    3.3130 C.2       1 UNL1        0.0000
      8 C           4.2485  -11.7760    2.9026 C.2       1 UNL1        0.0000
      9 O           5.0566  -12.2220    3.7164 O.2       1 UNL1        0.0000
     10 N           4.5376  -11.5561    1.5689 N.am      1 UNL1        0.0000
     11 N           5.7810  -11.8312    1.0888 N.2       1 UNL1        0.0000
     12 C           5.9500  -11.6130   -0.1797 C.2       1 UNL1        0.0000
     13 C           7.2591  -11.8583   -0.8356 C.ar      1 UNL1        0.0000
     14 C           8.2822  -12.4938   -0.1082 C.ar      1 UNL1        0.0000
     15 O           8.1578  -12.9033    1.1935 O.3       1 UNL1        0.0000
     16 C           9.5131  -12.7521   -0.6942 C.ar      1 UNL1        0.0000
     17 C           9.7436  -12.3737   -2.0127 C.ar      1 UNL1        0.0000
     18 C           8.7493  -11.7313   -2.7645 C.ar      1 UNL1        0.0000
     19 C           7.4786  -11.4582   -2.1898 C.ar      1 UNL1        0.0000
     20 C           6.5327  -10.7952   -3.0173 C.ar      1 UNL1        0.0000
     21 C           6.8246  -10.4300   -4.3347 C.ar      1 UNL1        0.0000
     22 C           8.0712  -10.7119   -4.8709 C.ar      1 UNL1        0.0000
     23 C           9.0259  -11.3576   -4.0899 C.ar      1 UNL1        0.0000
     24 C           2.5087  -11.6971    4.5874 C.2       1 UNL1        0.0000
     25 C           1.1693  -11.4159    5.0786 C.ar      1 UNL1        0.0000
     26 C           0.8019  -11.6863    6.3992 C.ar      1 UNL1        0.0000
     27 C          -0.4970  -11.4032    6.8283 C.ar      1 UNL1        0.0000
     28 BR         -0.9887  -11.7710    8.6168 Br        1 UNL1        0.0000
     29 C          -1.4361  -10.8534    5.9552 C.ar      1 UNL1        0.0000
     30 H           3.8269  -11.1709    0.9416 H         1 UNL1        0.0000
     31 H           5.1137  -11.2440   -0.7923 H         1 UNL1        0.0000
     32 H           7.2789  -12.6147    1.5313 H         1 UNL1        0.0000
     33 H          10.2935  -13.2463   -0.1214 H         1 UNL1        0.0000
     34 H          10.7185  -12.5843   -2.4487 H         1 UNL1        0.0000
     35 H           5.5420  -10.5375   -2.6551 H         1 UNL1        0.0000
     36 H           6.0750   -9.9225   -4.9369 H         1 UNL1        0.0000
     37 H           8.3044  -10.4281   -5.8938 H         1 UNL1        0.0000
     38 H          10.0001  -11.5663   -4.5287 H         1 UNL1        0.0000
     39 H           3.2230  -12.1275    5.2862 H         1 UNL1        0.0000
     40 H           1.5211  -12.1161    7.0935 H         1 UNL1        0.0000
     41 H          -2.4442  -10.6380    6.3007 H         1 UNL1        0.0000
@<TRIPOS>BOND
     1    1    2 1
     2    2    3 ar
     3    2   29 ar
     4    3   25 ar
     5    3    4 1
     6    4    5 1
     7    5    7 1
     8    5    6 2
     9    7    8 1
    10    7   24 2
    11    8    9 2
    12    8   10 am
    13   10   30 1
    14   10   11 1
    15   11   12 2
    16   12   13 1
    17   12   31 1
    18   13   14 ar
    19   13   19 ar
    20   14   15 1
    21   14   16 ar
    22   15   32 1
    23   16   17 ar
    24   16   33 1
    25   17   18 ar
    26   17   34 1
    27   18   19 ar
    28   18   23 ar
    29   19   20 ar
    30   20   21 ar
    31   20   35 1
    32   21   22 ar
    33   21   36 1
    34   22   37 1
    35   22   23 ar
    36   23   38 1
    37   24   25 1
    38   24   39 1
    39   25   26 ar
    40   26   27 ar
    41   26   40 1
    42   27   28 1
    43   27   29 ar
    44   29   41 1
@<TRIPOS>SUBSTRUCTURE
1 UNL1 1
@<TRIPOS>COMMENT
0.0000



