@<TRIPOS>MOLECULE
*****
70 72 1
SMALL
GASTEIGER

@<TRIPOS>DICT

@<TRIPOS>ATOM
      1 S           2.5049    3.1618   -0.6615 S.o2      1 UNL1        0.0000
      2 O           1.9432    1.8518   -0.9095 O.2       1 UNL1        0.0000
      3 O           1.7065    4.2341   -0.1060 O.2       1 UNL1        0.0000
      4 N           3.1889    3.7442   -2.1239 N.am      1 UNL1        0.0000
      5 C           3.9266    5.0354   -1.9962 C.3       1 UNL1        0.0000
      6 C           4.6844    5.3154   -3.3005 C.3       1 UNL1        0.0000
      7 C           5.4990    6.6011   -3.1890 C.3       1 UNL1        0.0000
      8 C           3.7005    5.3888   -4.4734 C.3       1 UNL1        0.0000
      9 C           2.8696    4.1110   -4.5506 C.3       1 UNL1        0.0000
     10 C           2.1792    3.8096   -3.2236 C.3       1 UNL1        0.0000
     11 C           3.9182    2.9211    0.3865 C.ar      1 UNL1        0.0000
     12 C           4.9673    2.1142   -0.0693 C.ar      1 UNL1        0.0000
     13 C           6.0935    1.9107    0.7370 C.ar      1 UNL1        0.0000
     14 C           7.2433    1.0832    0.3297 C.2       1 UNL1        0.0000
     15 C           7.3306    0.3292   -0.9493 C.2       1 UNL1        0.0000
     16 O           8.2891    0.4522   -1.7019 O.2       1 UNL1        0.0000
     17 N           6.2724   -0.5141   -1.1712 N.am      1 UNL1        0.0000
     18 C           6.1338   -1.2916   -2.3840 C.3       1 UNL1        0.0000
     19 C           7.1000   -2.4689   -2.4787 C.3       1 UNL1        0.0000
     20 C           7.0385   -3.4434   -1.2935 C.3       1 UNL1        0.0000
     21 N           5.7105   -4.0199   -0.9934 N.4       1 UNL1        1.0000
     22 C           5.7880   -4.9290    0.1721 C.3       1 UNL1        0.0000
     23 C           6.0304   -4.2363    1.5229 C.3       1 UNL1        0.0000
     24 C           4.9393   -3.2517    1.9519 C.3       1 UNL1        0.0000
     25 C           3.5995   -3.9229    2.2174 C.3       1 UNL1        0.0000
     26 C           5.1896   -4.7734   -2.1423 C.3       1 UNL1        0.0000
     27 C           8.3250    0.9872    1.1191 C.2       1 UNL1        0.0000
     28 C           8.3826    1.6745    2.4246 C.2       1 UNL1        0.0000
     29 O           9.3685    1.5768    3.1460 O.2       1 UNL1        0.0000
     30 N           7.2886    2.4092    2.7856 N.am      1 UNL1        0.0000
     31 C           6.1510    2.5569    1.9844 C.ar      1 UNL1        0.0000
     32 C           5.1020    3.3626    2.4360 C.ar      1 UNL1        0.0000
     33 C           3.9758    3.5433    1.6351 C.ar      1 UNL1        0.0000
     34 H           4.6537    4.9740   -1.1807 H         1 UNL1        0.0000
     35 H           3.2268    5.8487   -1.7698 H         1 UNL1        0.0000
     36 H           5.3816    4.4870   -3.4872 H         1 UNL1        0.0000
     37 H           4.8584    7.4624   -2.9725 H         1 UNL1        0.0000
     38 H           6.0369    6.8026   -4.1213 H         1 UNL1        0.0000
     39 H           6.2401    6.5196   -2.3866 H         1 UNL1        0.0000
     40 H           4.2416    5.5319   -5.4159 H         1 UNL1        0.0000
     41 H           3.0332    6.2517   -4.3520 H         1 UNL1        0.0000
     42 H           3.5222    3.2721   -4.8230 H         1 UNL1        0.0000
     43 H           2.1195    4.2063   -5.3438 H         1 UNL1        0.0000
     44 H           1.6636    2.8477   -3.3164 H         1 UNL1        0.0000
     45 H           1.4330    4.5813   -3.0003 H         1 UNL1        0.0000
     46 H           4.8895    1.6694   -1.0594 H         1 UNL1        0.0000
     47 H           5.5871   -0.6693   -0.4413 H         1 UNL1        0.0000
     48 H           6.3023   -0.6200   -3.2341 H         1 UNL1        0.0000
     49 H           5.0938   -1.6297   -2.4344 H         1 UNL1        0.0000
     50 H           8.1272   -2.0893   -2.5455 H         1 UNL1        0.0000
     51 H           6.9213   -3.0022   -3.4196 H         1 UNL1        0.0000
     52 H           7.4018   -2.8949   -0.4178 H         1 UNL1        0.0000
     53 H           7.7646   -4.2464   -1.4771 H         1 UNL1        0.0000
     54 H           6.5756   -5.6779    0.0134 H         1 UNL1        0.0000
     55 H           4.8510   -5.4935    0.2567 H         1 UNL1        0.0000
     56 H           6.9936   -3.7146    1.5164 H         1 UNL1        0.0000
     57 H           6.1248   -5.0140    2.2918 H         1 UNL1        0.0000
     58 H           4.8149   -2.4615    1.2038 H         1 UNL1        0.0000
     59 H           5.2663   -2.7606    2.8766 H         1 UNL1        0.0000
     60 H           3.1505   -4.2992    1.2937 H         1 UNL1        0.0000
     61 H           2.8997   -3.2066    2.6596 H         1 UNL1        0.0000
     62 H           3.7097   -4.7600    2.9146 H         1 UNL1        0.0000
     63 H           5.8670   -5.5791   -2.4476 H         1 UNL1        0.0000
     64 H           5.0135   -4.1203   -3.0026 H         1 UNL1        0.0000
     65 H           4.2149   -5.2149   -1.9042 H         1 UNL1        0.0000
     66 H           9.2007    0.4057    0.8525 H         1 UNL1        0.0000
     67 H           7.3522    2.8762    3.6809 H         1 UNL1        0.0000
     68 H           5.1534    3.8574    3.4025 H         1 UNL1        0.0000
     69 H           3.1576    4.1699    1.9845 H         1 UNL1        0.0000
     70 H           5.0266   -3.2165   -0.7626 H         1 UNL1        0.0000
@<TRIPOS>BOND
     1    1    2 2
     2    1    3 2
     3    1    4 1
     4    1   11 1
     5    4    5 1
     6    4   10 1
     7    5   35 1
     8    5    6 1
     9    5   34 1
    10    6    7 1
    11    6   36 1
    12    6    8 1
    13    7   38 1
    14    7   39 1
    15    7   37 1
    16    8   40 1
    17    8    9 1
    18    8   41 1
    19    9   10 1
    20    9   42 1
    21    9   43 1
    22   10   44 1
    23   10   45 1
    24   11   12 ar
    25   11   33 ar
    26   12   13 ar
    27   12   46 1
    28   13   31 ar
    29   13   14 1
    30   14   15 1
    31   14   27 2
    32   15   16 2
    33   15   17 am
    34   17   18 1
    35   17   47 1
    36   18   19 1
    37   18   49 1
    38   18   48 1
    39   19   50 1
    40   19   20 1
    41   19   51 1
    42   20   52 1
    43   20   21 1
    44   20   53 1
    45   21   22 1
    46   21   26 1
    47   22   23 1
    48   22   54 1
    49   22   55 1
    50   23   24 1
    51   23   56 1
    52   23   57 1
    53   24   58 1
    54   24   25 1
    55   24   59 1
    56   25   61 1
    57   25   62 1
    58   25   60 1
    59   26   63 1
    60   26   65 1
    61   26   64 1
    62   27   28 1
    63   27   66 1
    64   28   29 2
    65   28   30 am
    66   30   31 1
    67   30   67 1
    68   31   32 ar
    69   32   33 ar
    70   32   68 1
    71   33   69 1
    72   21   70 1
@<TRIPOS>SUBSTRUCTURE
1 UNL1 1
@<TRIPOS>COMMENT
0.0000



