@<TRIPOS>MOLECULE
*****
48 52 1
SMALL
GASTEIGER

@<TRIPOS>DICT

@<TRIPOS>ATOM
      1 CL         10.1515  -11.6946    0.0933 Cl        1 UNL1        0.0000
      2 C          10.3823   -9.9870    0.0613 C.ar      1 UNL1        0.0000
      3 C           9.5675   -9.2049   -0.7671 C.ar      1 UNL1        0.0000
      4 C           9.7831   -7.8217   -0.7684 C.ar      1 UNL1        0.0000
      5 N           9.1613   -6.8154   -1.4614 N.2       1 UNL1        0.0000
      6 C           9.7848   -5.7200   -1.0608 C.2       1 UNL1        0.0000
      7 C           9.5576   -4.3362   -1.4714 C.ar      1 UNL1        0.0000
      8 C          10.2741   -3.2622   -0.9150 C.ar      1 UNL1        0.0000
      9 C          10.0595   -1.9359   -1.3307 C.ar      1 UNL1        0.0000
     10 N          10.8381   -0.9463   -0.6883 N.am      1 UNL1        0.0000
     11 C          11.0426    0.3945   -0.9237 C.2       1 UNL1        0.0000
     12 S          10.5437    1.3467   -2.2021 S.2       1 UNL1        0.0000
     13 N          11.8010    1.0415    0.0392 N.am      1 UNL1        0.0000
     14 C          12.4327    0.5378    1.1695 C.2       1 UNL1        0.0000
     15 O          12.3954   -0.6561    1.4672 O.2       1 UNL1        0.0000
     16 C          13.1552    1.5413    1.9248 C.2       1 UNL1        0.0000
     17 C          14.0455    1.4366    2.9858 C.2       1 UNL1        0.0000
     18 C          14.4996    0.1865    3.6472 C.3       1 UNL1        0.0000
     19 C          14.4382    2.7732    3.3058 C.ar      1 UNL1        0.0000
     20 C          13.7535    3.5985    2.4236 C.ar      1 UNL1        0.0000
     21 O          12.9857    2.8575    1.5823 O.3       1 UNL1        0.0000
     22 C          13.8517    4.9881    2.4110 C.ar      1 UNL1        0.0000
     23 C          14.7110    5.5619    3.3533 C.ar      1 UNL1        0.0000
     24 C          15.4264    4.7690    4.2535 C.ar      1 UNL1        0.0000
     25 C          15.2994    3.3723    4.2447 C.ar      1 UNL1        0.0000
     26 C           9.0887   -1.6948   -2.3005 C.ar      1 UNL1        0.0000
     27 C           8.3632   -2.7498   -2.8612 C.ar      1 UNL1        0.0000
     28 C           8.5983   -4.0604   -2.4521 C.ar      1 UNL1        0.0000
     29 O          10.7833   -5.9390   -0.1427 O.3       1 UNL1        0.0000
     30 C          10.7763   -7.2903    0.0377 C.ar      1 UNL1        0.0000
     31 C          11.6029   -8.0339    0.8707 C.ar      1 UNL1        0.0000
     32 C          11.3799   -9.4171    0.8638 C.ar      1 UNL1        0.0000
     33 H           8.7956   -9.6420   -1.3895 H         1 UNL1        0.0000
     34 H          11.0212   -3.4670   -0.1496 H         1 UNL1        0.0000
     35 H          11.3898   -1.3004    0.0949 H         1 UNL1        0.0000
     36 H          11.9338    2.0327   -0.1291 H         1 UNL1        0.0000
     37 H          14.6838   -0.6030    2.9118 H         1 UNL1        0.0000
     38 H          13.7412   -0.1655    4.3534 H         1 UNL1        0.0000
     39 H          15.4325    0.3438    4.1972 H         1 UNL1        0.0000
     40 H          13.2906    5.5893    1.7060 H         1 UNL1        0.0000
     41 H          14.8247    6.6437    3.3837 H         1 UNL1        0.0000
     42 H          16.0923    5.2405    4.9736 H         1 UNL1        0.0000
     43 H          15.8614    2.7693    4.9518 H         1 UNL1        0.0000
     44 H           8.8366   -0.6971   -2.6350 H         1 UNL1        0.0000
     45 H           7.6076   -2.5441   -3.6158 H         1 UNL1        0.0000
     46 H           8.0242   -4.8698   -2.9008 H         1 UNL1        0.0000
     47 H          12.3674   -7.5707    1.4816 H         1 UNL1        0.0000
     48 H          11.9961  -10.0545    1.4953 H         1 UNL1        0.0000
@<TRIPOS>BOND
     1    1    2 1
     2    2   32 ar
     3    2    3 ar
     4    3    4 ar
     5    3   33 1
     6    4    5 1
     7    4   30 ar
     8    5    6 2
     9    6    7 1
    10    6   29 1
    11    7    8 ar
    12    7   28 ar
    13    8   34 1
    14    8    9 ar
    15    9   10 1
    16    9   26 ar
    17   10   11 1
    18   10   35 1
    19   11   12 2
    20   11   13 1
    21   13   14 am
    22   13   36 1
    23   14   15 2
    24   14   16 1
    25   16   17 2
    26   16   21 1
    27   17   18 1
    28   17   19 1
    29   18   37 1
    30   18   38 1
    31   18   39 1
    32   19   20 ar
    33   19   25 ar
    34   20   21 1
    35   20   22 ar
    36   22   23 ar
    37   22   40 1
    38   23   24 ar
    39   23   41 1
    40   24   25 ar
    41   24   42 1
    42   25   43 1
    43   26   27 ar
    44   26   44 1
    45   27   28 ar
    46   27   45 1
    47   28   46 1
    48   29   30 1
    49   30   31 ar
    50   31   32 ar
    51   31   47 1
    52   32   48 1
@<TRIPOS>SUBSTRUCTURE
1 UNL1 1
@<TRIPOS>COMMENT
0.0000



