@<TRIPOS>MOLECULE
*****
56 59 1
SMALL
GASTEIGER

@<TRIPOS>DICT

@<TRIPOS>ATOM
      1 CL          3.8288  -10.5775   -9.0260 Cl        1 UNL1        0.0000
      2 C           3.5278   -9.4581   -7.7523 C.ar      1 UNL1        0.0000
      3 C           3.9301   -8.1313   -7.8627 C.ar      1 UNL1        0.0000
      4 F           4.5605   -7.6929   -8.9619 F         1 UNL1        0.0000
      5 C           3.6847   -7.2366   -6.8284 C.ar      1 UNL1        0.0000
      6 C           3.0345   -7.6730   -5.6694 C.ar      1 UNL1        0.0000
      7 C           2.6281   -9.0047   -5.5430 C.ar      1 UNL1        0.0000
      8 N           1.9914   -9.5272   -4.4015 N.am      1 UNL1        0.0000
      9 C           1.6925   -8.8769   -3.2163 C.2       1 UNL1        0.0000
     10 O           1.8236   -7.6716   -3.0113 O.2       1 UNL1        0.0000
     11 C           1.0461   -9.7608   -2.1529 C.3       1 UNL1        0.0000
     12 S           1.4584  -11.5290   -2.2911 S.3       1 UNL1        0.0000
     13 C           3.1340  -11.5072   -1.8336 C.2       1 UNL1        0.0000
     14 N           3.7901  -10.4222   -1.6097 N.2       1 UNL1        0.0000
     15 C           5.1126  -10.5653   -1.2546 C.2       1 UNL1        0.0000
     16 C           5.7414  -11.7459   -1.1372 C.2       1 UNL1        0.0000
     17 C           4.9575  -12.9675   -1.4017 C.2       1 UNL1        0.0000
     18 O           5.4324  -14.0911   -1.2949 O.2       1 UNL1        0.0000
     19 N           3.6590  -12.7556   -1.7527 N.am      1 UNL1        0.0000
     20 C           7.1681  -11.9063   -0.7121 C.3       1 UNL1        0.0000
     21 N           7.9345  -10.6405   -0.6481 N.4       1 UNL1        1.0000
     22 C           9.1704  -10.8715    0.1242 C.3       1 UNL1        0.0000
     23 C          10.1183   -9.6936    0.1598 C.ar      1 UNL1        0.0000
     24 C          10.5253   -9.1547    1.3903 C.ar      1 UNL1        0.0000
     25 C          11.4333   -8.0948    1.4489 C.ar      1 UNL1        0.0000
     26 O          11.7412   -7.6690    2.7121 O.3       1 UNL1        0.0000
     27 C          12.9825   -6.9883    2.8524 C.3       1 UNL1        0.0000
     28 C          11.9220   -7.5440    0.2651 C.ar      1 UNL1        0.0000
     29 C          11.5198   -8.0669   -0.9670 C.ar      1 UNL1        0.0000
     30 C          10.6291   -9.1400   -1.0204 C.ar      1 UNL1        0.0000
     31 C           7.1107   -9.5655   -0.0673 C.3       1 UNL1        0.0000
     32 C           5.8642   -9.2992   -0.9302 C.3       1 UNL1        0.0000
     33 C           2.8760   -9.8956   -6.5967 C.ar      1 UNL1        0.0000
     34 H           4.0033   -6.2029   -6.9232 H         1 UNL1        0.0000
     35 H           2.8661   -6.9460   -4.8803 H         1 UNL1        0.0000
     36 H           1.7781  -10.5186   -4.4139 H         1 UNL1        0.0000
     37 H          -0.0389   -9.6582   -2.2569 H         1 UNL1        0.0000
     38 H           1.3280   -9.3955   -1.1602 H         1 UNL1        0.0000
     39 H           3.0798  -13.5612   -1.9272 H         1 UNL1        0.0000
     40 H           7.6811  -12.5724   -1.4169 H         1 UNL1        0.0000
     41 H           7.1648  -12.4011    0.2688 H         1 UNL1        0.0000
     42 H           9.7277  -11.7075   -0.3203 H         1 UNL1        0.0000
     43 H           8.9236  -11.1774    1.1500 H         1 UNL1        0.0000
     44 H          10.1436   -9.5673    2.3216 H         1 UNL1        0.0000
     45 H          13.1634   -6.8443    3.9221 H         1 UNL1        0.0000
     46 H          12.9476   -5.9987    2.3869 H         1 UNL1        0.0000
     47 H          13.8085   -7.5856    2.4512 H         1 UNL1        0.0000
     48 H          12.6023   -6.6994    0.2680 H         1 UNL1        0.0000
     49 H          11.8985   -7.6336   -1.8893 H         1 UNL1        0.0000
     50 H          10.3228   -9.5391   -1.9852 H         1 UNL1        0.0000
     51 H           7.6730   -8.6264   -0.0133 H         1 UNL1        0.0000
     52 H           6.8073   -9.8208    0.9571 H         1 UNL1        0.0000
     53 H           6.1571   -8.8133   -1.8697 H         1 UNL1        0.0000
     54 H           5.2108   -8.6018   -0.3924 H         1 UNL1        0.0000
     55 H           2.5715  -10.9363   -6.5248 H         1 UNL1        0.0000
     56 H           8.2079  -10.3568   -1.6537 H         1 UNL1        0.0000
@<TRIPOS>BOND
     1    1    2 1
     2    2    3 ar
     3    2   33 ar
     4    3    4 1
     5    3    5 ar
     6    5    6 ar
     7    5   34 1
     8    6    7 ar
     9    6   35 1
    10    7   33 ar
    11    7    8 1
    12    8    9 am
    13    8   36 1
    14    9   10 2
    15    9   11 1
    16   11   12 1
    17   11   37 1
    18   11   38 1
    19   12   13 1
    20   13   14 2
    21   13   19 1
    22   14   15 1
    23   15   32 1
    24   15   16 2
    25   16   17 1
    26   16   20 1
    27   17   18 2
    28   17   19 am
    29   19   39 1
    30   20   41 1
    31   20   21 1
    32   20   40 1
    33   21   31 1
    34   21   22 1
    35   22   23 1
    36   22   43 1
    37   22   42 1
    38   23   24 ar
    39   23   30 ar
    40   24   25 ar
    41   24   44 1
    42   25   26 1
    43   25   28 ar
    44   26   27 1
    45   27   47 1
    46   27   45 1
    47   27   46 1
    48   28   29 ar
    49   28   48 1
    50   29   30 ar
    51   29   49 1
    52   30   50 1
    53   31   32 1
    54   31   52 1
    55   31   51 1
    56   32   53 1
    57   32   54 1
    58   33   55 1
    59   21   56 1
@<TRIPOS>SUBSTRUCTURE
1 UNL1 1
@<TRIPOS>COMMENT
0.0000



