@<TRIPOS>MOLECULE
*****
46 50 1
SMALL
GASTEIGER

@<TRIPOS>DICT

@<TRIPOS>ATOM
      1 BR          1.4416    0.2945   -3.0232 Br        1 UNL1        0.0000
      2 C           3.1412    0.1183   -2.2094 C.ar      1 UNL1        0.0000
      3 C           4.0809   -0.7425   -2.7808 C.ar      1 UNL1        0.0000
      4 C           5.3385   -0.8394   -2.1629 C.ar      1 UNL1        0.0000
      5 S           6.6946   -1.7980   -2.6153 S.3       1 UNL1        0.0000
      6 C           7.5792   -1.1444   -1.3116 C.2       1 UNL1        0.0000
      7 N           8.8575   -1.6116   -1.2558 N.am      1 UNL1        0.0000
      8 C           9.8034   -1.2016   -0.3417 C.2       1 UNL1        0.0000
      9 O           9.6094   -0.3607    0.5287 O.2       1 UNL1        0.0000
     10 C          11.1066   -1.8733   -0.5084 C.2       1 UNL1        0.0000
     11 C          12.3283   -1.5979    0.1092 C.2       1 UNL1        0.0000
     12 C          12.5883   -0.4678    1.0601 C.3       1 UNL1        0.0000
     13 C          13.3309   -2.5719   -0.2683 C.2       1 UNL1        0.0000
     14 C          14.7074   -2.7311    0.1888 C.2       1 UNL1        0.0000
     15 O          15.2122   -1.9913    1.0290 O.2       1 UNL1        0.0000
     16 N          15.3849   -3.7989   -0.4022 N.am      1 UNL1        0.0000
     17 C          16.7426   -4.1065    0.0293 C.3       1 UNL1        0.0000
     18 C          16.7673   -5.1687    1.1106 C.ar      1 UNL1        0.0000
     19 C          17.0237   -6.5270    0.8577 C.ar      1 UNL1        0.0000
     20 CL         17.4159   -7.1183   -0.7175 Cl        1 UNL1        0.0000
     21 C          16.9804   -7.4667    1.8940 C.ar      1 UNL1        0.0000
     22 C          16.6921   -7.0660    3.1969 C.ar      1 UNL1        0.0000
     23 C          16.4501   -5.7237    3.4684 C.ar      1 UNL1        0.0000
     24 C          16.4852   -4.7844    2.4359 C.ar      1 UNL1        0.0000
     25 C          14.7837   -4.5876   -1.3644 C.2       1 UNL1        0.0000
     26 N          13.5690   -4.4675   -1.7917 N.2       1 UNL1        0.0000
     27 C          12.8716   -3.4663   -1.2058 C.2       1 UNL1        0.0000
     28 S          11.2457   -3.2065   -1.5912 S.3       1 UNL1        0.0000
     29 N           6.9542   -0.2960   -0.5422 N.2       1 UNL1        0.0000
     30 C           5.6656   -0.1095   -1.0161 C.ar      1 UNL1        0.0000
     31 C           4.6888    0.7395   -0.4564 C.ar      1 UNL1        0.0000
     32 C           3.4305    0.8484   -1.0610 C.ar      1 UNL1        0.0000
     33 H           3.8568   -1.3150   -3.6754 H         1 UNL1        0.0000
     34 H           9.1192   -2.2941   -1.9513 H         1 UNL1        0.0000
     35 H          11.8918    0.3620    0.9174 H         1 UNL1        0.0000
     36 H          13.5883   -0.0507    0.9031 H         1 UNL1        0.0000
     37 H          12.5133   -0.8168    2.0943 H         1 UNL1        0.0000
     38 H          17.2316   -3.2003    0.4079 H         1 UNL1        0.0000
     39 H          17.3289   -4.4133   -0.8432 H         1 UNL1        0.0000
     40 H          17.1712   -8.5182    1.6914 H         1 UNL1        0.0000
     41 H          16.6586   -7.7999    3.9984 H         1 UNL1        0.0000
     42 H          16.2290   -5.4046    4.4845 H         1 UNL1        0.0000
     43 H          16.2870   -3.7398    2.6763 H         1 UNL1        0.0000
     44 H          15.4273   -5.3719   -1.7878 H         1 UNL1        0.0000
     45 H           4.9257    1.3083    0.4379 H         1 UNL1        0.0000
     46 H           2.6882    1.5124   -0.6243 H         1 UNL1        0.0000
@<TRIPOS>BOND
     1    1    2 1
     2    2    3 ar
     3    2   32 ar
     4    3    4 ar
     5    3   33 1
     6    4    5 1
     7    4   30 ar
     8    5    6 1
     9    6    7 1
    10    6   29 2
    11    7    8 am
    12    7   34 1
    13    8   10 1
    14    8    9 2
    15   10   11 2
    16   10   28 1
    17   11   13 1
    18   11   12 1
    19   12   35 1
    20   12   36 1
    21   12   37 1
    22   13   14 1
    23   13   27 2
    24   14   15 2
    25   14   16 am
    26   16   17 1
    27   16   25 1
    28   17   18 1
    29   17   38 1
    30   17   39 1
    31   18   24 ar
    32   18   19 ar
    33   19   20 1
    34   19   21 ar
    35   21   22 ar
    36   21   40 1
    37   22   23 ar
    38   22   41 1
    39   23   24 ar
    40   23   42 1
    41   24   43 1
    42   25   44 1
    43   25   26 2
    44   26   27 1
    45   27   28 1
    46   29   30 1
    47   30   31 ar
    48   31   45 1
    49   31   32 ar
    50   32   46 1
@<TRIPOS>SUBSTRUCTURE
1 UNL1 1
@<TRIPOS>COMMENT
0.0000



