@<TRIPOS>MOLECULE
*****
58 61 1
SMALL
GASTEIGER

@<TRIPOS>DICT

@<TRIPOS>ATOM
      1 CL         -0.2727    3.4892    3.1324 Cl        1 UNL1        0.0000
      2 C           0.8186    2.2382    3.6201 C.ar      1 UNL1        0.0000
      3 C           2.0473    2.0179    2.9704 C.ar      1 UNL1        0.0000
      4 C           2.4900    2.8752    1.7959 C.3       1 UNL1        0.0000
      5 N           3.9534    3.0180    1.6151 N.4       1 UNL1        1.0000
      6 C           4.2383    3.7715    0.3705 C.3       1 UNL1        0.0000
      7 C           3.9660    5.3006    0.4454 C.3       1 UNL1        0.0000
      8 N           4.5888    5.9939    1.5950 N.4       1 UNL1        1.0000
      9 C           6.0365    6.1941    1.3447 C.3       1 UNL1        0.0000
     10 C           6.7805    6.8470    2.5123 C.2       1 UNL1        0.0000
     11 O           7.6282    6.2321    3.1640 O.2       1 UNL1        0.0000
     12 N           6.5047    8.1566    2.8257 N.am      1 UNL1        0.0000
     13 N           5.4758    8.8511    2.2745 N.2       1 UNL1        0.0000
     14 C           5.2514   10.0129    2.8100 C.2       1 UNL1        0.0000
     15 C           4.1007   10.8558    2.4005 C.ar      1 UNL1        0.0000
     16 C           3.1296   10.3213    1.5352 C.ar      1 UNL1        0.0000
     17 O           3.1879    9.0652    0.9911 O.3       1 UNL1        0.0000
     18 C           2.0062   11.0613    1.1924 C.ar      1 UNL1        0.0000
     19 C           1.8275   12.3362    1.7208 C.ar      1 UNL1        0.0000
     20 C           2.7771   12.9002    2.5843 C.ar      1 UNL1        0.0000
     21 C           3.9480   12.1751    2.9330 C.ar      1 UNL1        0.0000
     22 C           4.8728   12.8328    3.7891 C.ar      1 UNL1        0.0000
     23 C           4.6396   14.1167    4.2915 C.ar      1 UNL1        0.0000
     24 C           3.4769   14.7909    3.9538 C.ar      1 UNL1        0.0000
     25 C           2.5554   14.1875    3.1023 C.ar      1 UNL1        0.0000
     26 C           4.3091    5.2337    2.8294 C.3       1 UNL1        0.0000
     27 C           4.6068    3.7205    2.7434 C.3       1 UNL1        0.0000
     28 C           2.8260    0.9240    3.3943 C.ar      1 UNL1        0.0000
     29 C           2.4279    0.1249    4.4691 C.ar      1 UNL1        0.0000
     30 C           1.2273    0.3830    5.1229 C.ar      1 UNL1        0.0000
     31 C           0.4187    1.4322    4.6922 C.ar      1 UNL1        0.0000
     32 H           2.0344    3.8663    1.8633 H         1 UNL1        0.0000
     33 H           2.0731    2.3910    0.9024 H         1 UNL1        0.0000
     34 H           3.6747    3.3428   -0.4677 H         1 UNL1        0.0000
     35 H           5.2934    3.6095    0.1159 H         1 UNL1        0.0000
     36 H           2.8830    5.4676    0.4992 H         1 UNL1        0.0000
     37 H           4.2805    5.7708   -0.4949 H         1 UNL1        0.0000
     38 H           6.1740    6.8416    0.4698 H         1 UNL1        0.0000
     39 H           6.5470    5.2494    1.1248 H         1 UNL1        0.0000
     40 H           7.0049    8.5260    3.6270 H         1 UNL1        0.0000
     41 H           5.9050   10.3808    3.6154 H         1 UNL1        0.0000
     42 H           3.9725    8.5919    1.3528 H         1 UNL1        0.0000
     43 H           1.2597   10.6368    0.5261 H         1 UNL1        0.0000
     44 H           0.9296   12.8885    1.4491 H         1 UNL1        0.0000
     45 H           5.8085   12.3654    4.0808 H         1 UNL1        0.0000
     46 H           5.3700   14.5861    4.9462 H         1 UNL1        0.0000
     47 H           3.2871   15.7867    4.3459 H         1 UNL1        0.0000
     48 H           1.6513   14.7366    2.8445 H         1 UNL1        0.0000
     49 H           3.2483    5.3738    3.0737 H         1 UNL1        0.0000
     50 H           4.8432    5.6602    3.6858 H         1 UNL1        0.0000
     51 H           4.3521    3.2531    3.7007 H         1 UNL1        0.0000
     52 H           5.6906    3.5765    2.6430 H         1 UNL1        0.0000
     53 H           3.7655    0.6982    2.8914 H         1 UNL1        0.0000
     54 H           3.0580   -0.6998    4.7931 H         1 UNL1        0.0000
     55 H           0.9156   -0.2372    5.9592 H         1 UNL1        0.0000
     56 H          -0.5284    1.6168    5.1933 H         1 UNL1        0.0000
     57 H           4.3865    2.0326    1.5267 H         1 UNL1        0.0000
     58 H           4.1285    6.9664    1.6885 H         1 UNL1        0.0000
@<TRIPOS>BOND
     1    1    2 1
     2    2    3 ar
     3    2   31 ar
     4    3    4 1
     5    3   28 ar
     6    4    5 1
     7    4   32 1
     8    4   33 1
     9    5   27 1
    10    5    6 1
    11    6    7 1
    12    6   34 1
    13    6   35 1
    14    7    8 1
    15    7   36 1
    16    7   37 1
    17    8   26 1
    18    8    9 1
    19    9   39 1
    20    9   10 1
    21    9   38 1
    22   10   12 1
    23   10   11 2
    24   12   13 1
    25   12   40 1
    26   13   14 2
    27   14   15 1
    28   14   41 1
    29   15   16 ar
    30   15   21 ar
    31   16   17 1
    32   16   18 ar
    33   17   42 1
    34   18   19 ar
    35   18   43 1
    36   19   44 1
    37   19   20 ar
    38   20   21 ar
    39   20   25 ar
    40   21   22 ar
    41   22   23 ar
    42   22   45 1
    43   23   24 ar
    44   23   46 1
    45   24   25 ar
    46   24   47 1
    47   25   48 1
    48   26   27 1
    49   26   49 1
    50   26   50 1
    51   27   51 1
    52   27   52 1
    53   28   29 ar
    54   28   53 1
    55   29   54 1
    56   29   30 ar
    57   30   31 ar
    58   30   55 1
    59   31   56 1
    60    5   57 1
    61    8   58 1
@<TRIPOS>SUBSTRUCTURE
1 UNL1 1
@<TRIPOS>COMMENT
0.0000



