@<TRIPOS>MOLECULE
*****
57 60 1
SMALL
GASTEIGER

@<TRIPOS>DICT

@<TRIPOS>ATOM
      1 S           2.3379    2.8308    3.6326 S.o2      1 UNL1        0.0000
      2 O           1.5446    1.9851    4.5032 O.2       1 UNL1        0.0000
      3 O           3.3728    3.6850    4.1723 O.2       1 UNL1        0.0000
      4 N           1.2383    3.6707    2.6876 N.am      1 UNL1        0.0000
      5 C           1.3767    5.0538    2.7834 C.ar      1 UNL1        0.0000
      6 N           2.3535    5.6415    2.0897 N.ar      1 UNL1        0.0000
      7 C           2.4157    6.9849    2.2003 C.ar      1 UNL1        0.0000
      8 C           3.4973    7.6938    1.4419 C.3       1 UNL1        0.0000
      9 C           1.5186    7.7081    2.9666 C.ar      1 UNL1        0.0000
     10 C           0.5463    6.9804    3.6164 C.ar      1 UNL1        0.0000
     11 N           0.4418    5.6430    3.5332 N.ar      1 UNL1        0.0000
     12 C           3.0857    1.7493    2.4305 C.ar      1 UNL1        0.0000
     13 C           4.3498    2.0412    1.9190 C.ar      1 UNL1        0.0000
     14 C           4.9740    1.1360    1.0502 C.ar      1 UNL1        0.0000
     15 C           4.3450   -0.0603    0.6903 C.ar      1 UNL1        0.0000
     16 N           4.9232   -1.0384   -0.1478 N.am      1 UNL1        0.0000
     17 C           6.1631   -0.9950   -0.7659 C.2       1 UNL1        0.0000
     18 O           6.9737   -0.0744   -0.6991 O.2       1 UNL1        0.0000
     19 C           6.4989   -2.2574   -1.5499 C.3       1 UNL1        0.0000
     20 C           5.5603   -2.5455   -2.6751 C.2       1 UNL1        0.0000
     21 C           4.9272   -1.6226   -3.5670 C.ar      1 UNL1        0.0000
     22 C           4.1558   -2.3881   -4.4314 C.ar      1 UNL1        0.0000
     23 O           4.2916   -3.7093   -4.1391 O.3       1 UNL1        0.0000
     24 C           5.1445   -3.7974   -3.0884 C.2       1 UNL1        0.0000
     25 C           3.3619   -1.8632   -5.4463 C.ar      1 UNL1        0.0000
     26 C           3.3468   -0.4687   -5.5725 C.ar      1 UNL1        0.0000
     27 C           4.1038    0.3587   -4.7261 C.ar      1 UNL1        0.0000
     28 C           4.0377    1.8693   -4.8883 C.3       1 UNL1        0.0000
     29 C           3.6103    2.5603   -3.5890 C.3       1 UNL1        0.0000
     30 C           5.3683    2.4314   -5.3928 C.3       1 UNL1        0.0000
     31 C           4.9150   -0.2240   -3.7307 C.ar      1 UNL1        0.0000
     32 C           3.0686   -0.3331    1.2035 C.ar      1 UNL1        0.0000
     33 C           2.4415    0.5611    2.0779 C.ar      1 UNL1        0.0000
     34 H           0.3077    3.4364    3.0237 H         1 UNL1        0.0000
     35 H           4.1447    6.9788    0.9247 H         1 UNL1        0.0000
     36 H           4.1168    8.2828    2.1254 H         1 UNL1        0.0000
     37 H           3.0565    8.3599    0.6934 H         1 UNL1        0.0000
     38 H           1.5704    8.7858    3.0539 H         1 UNL1        0.0000
     39 H          -0.1982    7.4693    4.2385 H         1 UNL1        0.0000
     40 H           4.8660    2.9574    2.1992 H         1 UNL1        0.0000
     41 H           5.9630    1.3942    0.6840 H         1 UNL1        0.0000
     42 H           4.3498   -1.8508   -0.3436 H         1 UNL1        0.0000
     43 H           6.5197   -3.0947   -0.8415 H         1 UNL1        0.0000
     44 H           7.5136   -2.1519   -1.9522 H         1 UNL1        0.0000
     45 H           5.3577   -4.8036   -2.7531 H         1 UNL1        0.0000
     46 H           2.7811   -2.5052   -6.0972 H         1 UNL1        0.0000
     47 H           2.7256   -0.0280   -6.3508 H         1 UNL1        0.0000
     48 H           3.2745    2.1067   -5.6412 H         1 UNL1        0.0000
     49 H           4.3567    2.4450   -2.7954 H         1 UNL1        0.0000
     50 H           2.6645    2.1487   -3.2193 H         1 UNL1        0.0000
     51 H           3.4681    3.6338   -3.7534 H         1 UNL1        0.0000
     52 H           6.1840    2.2510   -4.6840 H         1 UNL1        0.0000
     53 H           5.2958    3.5130   -5.5496 H         1 UNL1        0.0000
     54 H           5.6493    1.9722   -6.3471 H         1 UNL1        0.0000
     55 H           5.5200    0.4048   -3.0826 H         1 UNL1        0.0000
     56 H           2.5503   -1.2538    0.9461 H         1 UNL1        0.0000
     57 H           1.4643    0.3168    2.4882 H         1 UNL1        0.0000
@<TRIPOS>BOND
     1    1    3 2
     2    1    2 2
     3    1    4 1
     4    1   12 1
     5    4    5 1
     6    4   34 1
     7    5    6 ar
     8    5   11 ar
     9    6    7 ar
    10    7    8 1
    11    7    9 ar
    12    8   35 1
    13    8   36 1
    14    8   37 1
    15    9   10 ar
    16    9   38 1
    17   10   11 ar
    18   10   39 1
    19   12   13 ar
    20   12   33 ar
    21   13   40 1
    22   13   14 ar
    23   14   15 ar
    24   14   41 1
    25   15   32 ar
    26   15   16 1
    27   16   17 am
    28   16   42 1
    29   17   18 2
    30   17   19 1
    31   19   20 1
    32   19   43 1
    33   19   44 1
    34   20   21 1
    35   20   24 2
    36   21   31 ar
    37   21   22 ar
    38   22   23 1
    39   22   25 ar
    40   23   24 1
    41   24   45 1
    42   25   46 1
    43   25   26 ar
    44   26   27 ar
    45   26   47 1
    46   27   31 ar
    47   27   28 1
    48   28   29 1
    49   28   30 1
    50   28   48 1
    51   29   49 1
    52   29   50 1
    53   29   51 1
    54   30   52 1
    55   30   54 1
    56   30   53 1
    57   31   55 1
    58   32   33 ar
    59   32   56 1
    60   33   57 1
@<TRIPOS>SUBSTRUCTURE
1 UNL1 1
@<TRIPOS>COMMENT
0.0000



