@<TRIPOS>MOLECULE
*****
53 58 1
SMALL
GASTEIGER

@<TRIPOS>DICT

@<TRIPOS>ATOM
      1 O           2.2768    2.0152    1.7572 O.2       1 UNL1        0.0000
      2 C           3.3147    1.4455    2.0852 C.2       1 UNL1        0.0000
      3 N           4.3327    1.1223    1.2012 N.am      1 UNL1        0.0000
      4 N           4.2432    1.4670   -0.1165 N.2       1 UNL1        0.0000
      5 C           5.2657    1.1378   -0.8466 C.2       1 UNL1        0.0000
      6 C           5.3239    1.4459   -2.2979 C.ar      1 UNL1        0.0000
      7 C           4.2068    2.0281   -2.9229 C.ar      1 UNL1        0.0000
      8 O           3.0481    2.3589   -2.2714 O.3       1 UNL1        0.0000
      9 C           4.2206    2.3040   -4.2829 C.ar      1 UNL1        0.0000
     10 C           5.3493    2.0039   -5.0386 C.ar      1 UNL1        0.0000
     11 C           6.4839    1.4312   -4.4466 C.ar      1 UNL1        0.0000
     12 C           6.4988    1.1426   -3.0554 C.ar      1 UNL1        0.0000
     13 C           7.6952    0.5776   -2.5353 C.ar      1 UNL1        0.0000
     14 C           8.8032    0.3057   -3.3432 C.ar      1 UNL1        0.0000
     15 C           8.7567    0.5888   -4.6988 C.ar      1 UNL1        0.0000
     16 C           7.6050    1.1487   -5.2448 C.ar      1 UNL1        0.0000
     17 C           3.5686    1.0698    3.4539 C.2       1 UNL1        0.0000
     18 N           2.6766    1.3547    4.4498 N.pl3     1 UNL1        0.0000
     19 H           1.7814    1.8249    4.3475 H         1 UNL1        0.0000
     20 N           3.0736    0.9690    5.6716 N.2       1 UNL1        0.0000
     21 C           4.2636    0.3832    5.4772 C.2       1 UNL1        0.0000
     22 C           5.0719   -0.1712    6.5721 C.ar      1 UNL1        0.0000
     23 C           4.4984   -0.8741    7.6754 C.ar      1 UNL1        0.0000
     24 C           5.3867   -1.3522    8.6104 C.ar      1 UNL1        0.0000
     25 C           6.7569   -1.1936    8.5377 C.ar      1 UNL1        0.0000
     26 C           7.3512   -0.5131    7.4890 C.ar      1 UNL1        0.0000
     27 C           6.4829   -0.0045    6.5095 C.ar      1 UNL1        0.0000
     28 C           7.4187   -1.8339    9.7088 C.3       1 UNL1        0.0000
     29 C           6.2350   -2.4237   10.5349 C.3       1 UNL1        0.0000
     30 C           5.0271   -2.0581    9.7445 C.ar      1 UNL1        0.0000
     31 C           3.7000   -2.3408   10.0299 C.ar      1 UNL1        0.0000
     32 C           2.7546   -1.8799    9.1046 C.ar      1 UNL1        0.0000
     33 C           3.1369   -1.1673    7.9501 C.ar      1 UNL1        0.0000
     34 C           4.6084    0.4252    4.0942 C.2       1 UNL1        0.0000
     35 H           5.1640    0.6536    1.5354 H         1 UNL1        0.0000
     36 H           6.1167    0.6121   -0.3896 H         1 UNL1        0.0000
     37 H           3.1506    2.1493   -1.3153 H         1 UNL1        0.0000
     38 H           3.3496    2.7520   -4.7546 H         1 UNL1        0.0000
     39 H           5.3338    2.2278   -6.1039 H         1 UNL1        0.0000
     40 H           7.8013    0.3389   -1.4819 H         1 UNL1        0.0000
     41 H           9.7014   -0.1261   -2.9082 H         1 UNL1        0.0000
     42 H           9.6144    0.3786   -5.3324 H         1 UNL1        0.0000
     43 H           7.5904    1.3670   -6.3114 H         1 UNL1        0.0000
     44 H           8.4251   -0.3779    7.4347 H         1 UNL1        0.0000
     45 H           6.9273    0.5519    5.6862 H         1 UNL1        0.0000
     46 H           7.9748   -1.0925   10.2914 H         1 UNL1        0.0000
     47 H           8.1014   -2.6245    9.3806 H         1 UNL1        0.0000
     48 H           6.1924   -1.9783   11.5341 H         1 UNL1        0.0000
     49 H           6.3221   -3.5113   10.6253 H         1 UNL1        0.0000
     50 H           3.4135   -2.8876   10.9207 H         1 UNL1        0.0000
     51 H           1.6984   -2.0722    9.2808 H         1 UNL1        0.0000
     52 H           2.3575   -0.8338    7.2694 H         1 UNL1        0.0000
     53 H           5.5106    0.0305    3.6509 H         1 UNL1        0.0000
@<TRIPOS>BOND
     1    1    2 2
     2    2   17 1
     3    2    3 am
     4    3   35 1
     5    3    4 1
     6    4    5 2
     7    5    6 1
     8    5   36 1
     9    6    7 ar
    10    6   12 ar
    11    7    8 1
    12    7    9 ar
    13    8   37 1
    14    9   10 ar
    15    9   38 1
    16   10   11 ar
    17   10   39 1
    18   11   12 ar
    19   11   16 ar
    20   12   13 ar
    21   13   14 ar
    22   13   40 1
    23   14   15 ar
    24   14   41 1
    25   15   16 ar
    26   15   42 1
    27   16   43 1
    28   17   18 1
    29   17   34 2
    30   18   19 1
    31   18   20 1
    32   20   21 2
    33   21   34 1
    34   21   22 1
    35   22   23 ar
    36   22   27 ar
    37   23   24 ar
    38   23   33 ar
    39   24   25 ar
    40   24   30 ar
    41   25   26 ar
    42   25   28 1
    43   26   27 ar
    44   26   44 1
    45   27   45 1
    46   28   29 1
    47   28   46 1
    48   28   47 1
    49   29   30 1
    50   29   49 1
    51   29   48 1
    52   30   31 ar
    53   31   32 ar
    54   31   50 1
    55   32   33 ar
    56   32   51 1
    57   33   52 1
    58   34   53 1
@<TRIPOS>SUBSTRUCTURE
1 UNL1 1
@<TRIPOS>COMMENT
0.0000



