@<TRIPOS>MOLECULE
*****
50 53 1
SMALL
GASTEIGER

@<TRIPOS>DICT

@<TRIPOS>ATOM
      1 F           3.3677   -4.8852    1.8203 F         1 UNL1        0.0000
      2 C           4.3279   -4.0262    1.4557 C.ar      1 UNL1        0.0000
      3 C           4.2171   -3.3423    0.2545 C.ar      1 UNL1        0.0000
      4 C           5.2282   -2.4564   -0.1360 C.ar      1 UNL1        0.0000
      5 C           6.3473   -2.2298    0.6760 C.ar      1 UNL1        0.0000
      6 N           7.4447   -1.4607    0.2925 N.4       1 UNL1        1.0000
      7 C           7.3498   -0.4367   -0.7406 C.3       1 UNL1        0.0000
      8 C           8.7642   -0.1784   -1.2333 C.2       1 UNL1        0.0000
      9 N           9.5255   -1.2962   -1.5548 N.pl3     1 UNL1        0.0000
     10 C          10.7960   -1.1965   -1.9861 C.2       1 UNL1        0.0000
     11 N          11.3364    0.0571   -2.1446 N.ar      1 UNL1        0.0000
     12 C          10.6662    1.2493   -1.8570 C.2       1 UNL1        0.0000
     13 O          11.1856    2.3485   -2.0029 O.2       1 UNL1        0.0000
     14 C           9.2723    1.0641   -1.3562 C.2       1 UNL1        0.0000
     15 N          12.6053   -0.0351   -2.6015 N.2       1 UNL1        0.0000
     16 C          12.7701   -1.3581   -2.6555 C.2       1 UNL1        0.0000
     17 N          13.8712   -2.0290   -3.0065 N.4       1 UNL1        1.0000
     18 C          14.8677   -1.4097   -3.8545 C.3       1 UNL1        0.0000
     19 C          16.1346   -2.2359   -3.8105 C.ar      1 UNL1        0.0000
     20 C          16.3441   -3.3194   -4.6826 C.ar      1 UNL1        0.0000
     21 O          15.3588   -3.5548   -5.6059 O.3       1 UNL1        0.0000
     22 C          15.2995   -4.8679   -6.1509 C.3       1 UNL1        0.0000
     23 C          17.5250   -4.0645   -4.5875 C.ar      1 UNL1        0.0000
     24 C          18.4814   -3.7564   -3.6164 C.ar      1 UNL1        0.0000
     25 C          18.2664   -2.7035   -2.7331 C.ar      1 UNL1        0.0000
     26 C          17.0986   -1.9497   -2.8269 C.ar      1 UNL1        0.0000
     27 N          11.6825   -2.1049   -2.2938 N.2       1 UNL1        0.0000
     28 C           6.4393   -2.9591    1.8751 C.ar      1 UNL1        0.0000
     29 C           5.4321   -3.8432    2.2724 C.ar      1 UNL1        0.0000
     30 H           3.3557   -3.5135   -0.3829 H         1 UNL1        0.0000
     31 H           5.1161   -1.9686   -1.0984 H         1 UNL1        0.0000
     32 H           7.9948   -1.1507    1.0914 H         1 UNL1        0.0000
     33 H           6.8869    0.4692   -0.3340 H         1 UNL1        0.0000
     34 H           6.7675   -0.7690   -1.6058 H         1 UNL1        0.0000
     35 H           9.1185   -2.1998   -1.3071 H         1 UNL1        0.0000
     36 H           8.7245    1.9661   -1.1154 H         1 UNL1        0.0000
     37 H          13.7422   -3.0175   -3.1867 H         1 UNL1        0.0000
     38 H          15.1010   -0.3896   -3.5225 H         1 UNL1        0.0000
     39 H          14.4987   -1.3213   -4.8836 H         1 UNL1        0.0000
     40 H          14.3918   -4.9347   -6.7585 H         1 UNL1        0.0000
     41 H          15.2283   -5.6210   -5.3587 H         1 UNL1        0.0000
     42 H          16.1506   -5.0649   -6.8099 H         1 UNL1        0.0000
     43 H          17.7363   -4.8865   -5.2628 H         1 UNL1        0.0000
     44 H          19.3949   -4.3416   -3.5495 H         1 UNL1        0.0000
     45 H          19.0046   -2.4692   -1.9706 H         1 UNL1        0.0000
     46 H          16.9307   -1.1359   -2.1238 H         1 UNL1        0.0000
     47 H           7.3139   -2.8521    2.5131 H         1 UNL1        0.0000
     48 H           5.5150   -4.3982    3.2009 H         1 UNL1        0.0000
     49 H           8.0540   -2.1978   -0.2093 H         1 UNL1        0.0000
     50 H          14.4074   -2.0150   -2.0691 H         1 UNL1        0.0000
@<TRIPOS>BOND
     1    1    2 1
     2    2   29 ar
     3    2    3 ar
     4    3   30 1
     5    3    4 ar
     6    4   31 1
     7    4    5 ar
     8    5    6 1
     9    5   28 ar
    10    6    7 1
    11    6   32 1
    12    7    8 1
    13    7   33 1
    14    7   34 1
    15    8    9 1
    16    8   14 2
    17    9   10 1
    18    9   35 1
    19   10   11 1
    20   10   27 2
    21   11   12 1
    22   11   15 1
    23   12   14 1
    24   12   13 2
    25   14   36 1
    26   15   16 2
    27   16   17 1
    28   16   27 1
    29   17   18 1
    30   17   37 1
    31   18   38 1
    32   18   19 1
    33   18   39 1
    34   19   26 ar
    35   19   20 ar
    36   20   23 ar
    37   20   21 1
    38   21   22 1
    39   22   42 1
    40   22   40 1
    41   22   41 1
    42   23   43 1
    43   23   24 ar
    44   24   25 ar
    45   24   44 1
    46   25   26 ar
    47   25   45 1
    48   26   46 1
    49   28   29 ar
    50   28   47 1
    51   29   48 1
    52    6   49 1
    53   17   50 1
@<TRIPOS>SUBSTRUCTURE
1 UNL1 1
@<TRIPOS>COMMENT
0.0000



