@<TRIPOS>MOLECULE
*****
47 50 1
SMALL
GASTEIGER

@<TRIPOS>DICT

@<TRIPOS>ATOM
      1 O           5.4711   -1.2779    7.2522 O.2       1 UNL1        0.0000
      2 C           5.0219   -0.7804    6.2258 C.2       1 UNL1        0.0000
      3 N           5.0945    0.5575    5.9037 N.am      1 UNL1        0.0000
      4 C           5.7002    1.4987    6.6829 C.2       1 UNL1        0.0000
      5 S           5.5738    3.0758    6.0462 S.3       1 UNL1        0.0000
      6 C           6.4634    3.6790    7.3919 C.ar      1 UNL1        0.0000
      7 C           6.7960    2.6101    8.2272 C.ar      1 UNL1        0.0000
      8 N           6.3447    1.3679    7.8094 N.2       1 UNL1        0.0000
      9 C           7.5445    2.8735    9.3908 C.ar      1 UNL1        0.0000
     10 C           7.9324    4.1859    9.6883 C.ar      1 UNL1        0.0000
     11 C           7.5791    5.2476    8.8506 C.ar      1 UNL1        0.0000
     12 C           8.0264    6.6425    9.1834 C.3       1 UNL1        0.0000
     13 C           6.8424    5.0011    7.6822 C.ar      1 UNL1        0.0000
     14 C           4.3212   -1.5858    5.2260 C.2       1 UNL1        0.0000
     15 C           3.9155   -2.9111    5.3071 C.2       1 UNL1        0.0000
     16 C           4.0919   -3.8366    6.4602 C.3       1 UNL1        0.0000
     17 N           3.2691   -3.3991    4.1760 N.2       1 UNL1        0.0000
     18 C           3.2035   -2.4687    3.2473 C.2       1 UNL1        0.0000
     19 C           2.5656   -2.6456    1.9012 C.3       1 UNL1        0.0000
     20 O           3.5515   -2.4600    0.8811 O.3       1 UNL1        0.0000
     21 C           4.2556   -3.5448    0.4380 C.ar      1 UNL1        0.0000
     22 C           4.1973   -4.8408    0.9538 C.ar      1 UNL1        0.0000
     23 C           4.9565   -5.8730    0.3777 C.ar      1 UNL1        0.0000
     24 C           4.8967   -7.2638    0.9388 C.3       1 UNL1        0.0000
     25 C           5.8135   -5.5826   -0.6899 C.ar      1 UNL1        0.0000
     26 C           5.8915   -4.2864   -1.1937 C.ar      1 UNL1        0.0000
     27 C           5.1115   -3.2754   -0.6332 C.ar      1 UNL1        0.0000
     28 S           3.8725   -0.9519    3.6907 S.3       1 UNL1        0.0000
     29 H           4.6712    0.8826    5.0482 H         1 UNL1        0.0000
     30 H           7.8182    2.0523   10.0463 H         1 UNL1        0.0000
     31 H           8.5170    4.3694   10.5880 H         1 UNL1        0.0000
     32 H           7.8139    6.8715   10.2327 H         1 UNL1        0.0000
     33 H           7.5028    7.3858    8.5728 H         1 UNL1        0.0000
     34 H           9.1010    6.7443    9.0026 H         1 UNL1        0.0000
     35 H           6.5685    5.8102    7.0110 H         1 UNL1        0.0000
     36 H           3.4545   -4.7198    6.3477 H         1 UNL1        0.0000
     37 H           3.8175   -3.3511    7.4016 H         1 UNL1        0.0000
     38 H           5.1313   -4.1724    6.5231 H         1 UNL1        0.0000
     39 H           1.8095   -1.8640    1.7593 H         1 UNL1        0.0000
     40 H           2.0302   -3.5965    1.8100 H         1 UNL1        0.0000
     41 H           3.5768   -5.0829    1.8115 H         1 UNL1        0.0000
     42 H           3.9325   -7.4509    1.4231 H         1 UNL1        0.0000
     43 H           5.6948   -7.4071    1.6732 H         1 UNL1        0.0000
     44 H           5.0071   -8.0072    0.1421 H         1 UNL1        0.0000
     45 H           6.4267   -6.3648   -1.1316 H         1 UNL1        0.0000
     46 H           6.5590   -4.0623   -2.0212 H         1 UNL1        0.0000
     47 H           5.1745   -2.2664   -1.0331 H         1 UNL1        0.0000
@<TRIPOS>BOND
     1    1    2 2
     2    2    3 am
     3    2   14 1
     4    3    4 1
     5    3   29 1
     6    4    5 1
     7    4    8 2
     8    5    6 1
     9    6    7 ar
    10    6   13 ar
    11    7    8 1
    12    7    9 ar
    13    9   10 ar
    14    9   30 1
    15   10   11 ar
    16   10   31 1
    17   11   12 1
    18   11   13 ar
    19   12   32 1
    20   12   33 1
    21   12   34 1
    22   13   35 1
    23   14   15 2
    24   14   28 1
    25   15   17 1
    26   15   16 1
    27   16   38 1
    28   16   36 1
    29   16   37 1
    30   17   18 2
    31   18   19 1
    32   18   28 1
    33   19   20 1
    34   19   39 1
    35   19   40 1
    36   20   21 1
    37   21   22 ar
    38   21   27 ar
    39   22   41 1
    40   22   23 ar
    41   23   25 ar
    42   23   24 1
    43   24   44 1
    44   24   43 1
    45   24   42 1
    46   25   45 1
    47   25   26 ar
    48   26   27 ar
    49   26   46 1
    50   27   47 1
@<TRIPOS>SUBSTRUCTURE
1 UNL1 1
@<TRIPOS>COMMENT
0.0000



