@<TRIPOS>MOLECULE
*****
54 57 1
SMALL
GASTEIGER

@<TRIPOS>DICT

@<TRIPOS>ATOM
      1 O           3.9265    0.7100   -2.8005 O.2       1 UNL1        0.0000
      2 C           4.0886   -0.3413   -3.4055 C.2       1 UNL1        0.0000
      3 N           3.3332   -1.4720   -3.1831 N.am      1 UNL1        0.0000
      4 C           2.2330   -1.4565   -2.2188 C.3       1 UNL1        0.0000
      5 H           2.5863   -0.9183   -1.3297 H         1 UNL1        0.0000
      6 C           1.7528   -2.8769   -1.8645 C.3       1 UNL1        0.0000
      7 H           2.4674   -3.6411   -2.1943 H         1 UNL1        0.0000
      8 C           1.5425   -3.0469   -0.3924 C.2       1 UNL1        0.0000
      9 N           0.6166   -2.3414    0.3233 N.pl3     1 UNL1        0.0000
     10 H          -0.0386   -1.6420   -0.0144 H         1 UNL1        0.0000
     11 N           0.6257   -2.6902    1.6165 N.2       1 UNL1        0.0000
     12 C           1.5905   -3.6249    1.6519 C.2       1 UNL1        0.0000
     13 C           2.0024   -4.3343    2.8603 C.ar      1 UNL1        0.0000
     14 C           1.4292   -4.0349    4.1052 C.ar      1 UNL1        0.0000
     15 C           1.8282   -4.7192    5.2567 C.ar      1 UNL1        0.0000
     16 C           2.8040   -5.7109    5.1759 C.ar      1 UNL1        0.0000
     17 C           3.3828   -6.0187    3.9462 C.ar      1 UNL1        0.0000
     18 C           2.9847   -5.3335    2.7950 C.ar      1 UNL1        0.0000
     19 N           2.1662   -3.8708    0.4204 N.2       1 UNL1        0.0000
     20 C           0.4432   -3.0147   -2.6424 C.3       1 UNL1        0.0000
     21 N          -0.1459   -1.6718   -2.5334 N.4       1 UNL1        1.0000
     22 C          -1.2470   -1.4867   -3.4986 C.3       1 UNL1        0.0000
     23 C          -1.9443   -0.1461   -3.3634 C.ar      1 UNL1        0.0000
     24 N          -1.5666    0.8374   -4.2198 N.ar      1 UNL1        0.0000
     25 C          -2.1491    2.0461   -4.0668 C.ar      1 UNL1        0.0000
     26 O          -1.7957    3.0933   -4.8944 O.3       1 UNL1        0.0000
     27 C          -0.9217    2.7006   -5.9468 C.3       1 UNL1        0.0000
     28 C          -3.0985    2.3267   -3.0984 C.ar      1 UNL1        0.0000
     29 C          -3.4815    1.3076   -2.2347 C.ar      1 UNL1        0.0000
     30 C          -2.8937    0.0532   -2.3618 C.ar      1 UNL1        0.0000
     31 C           0.9814   -0.7501   -2.7939 C.3       1 UNL1        0.0000
     32 C           5.1102   -0.4978   -4.4992 C.3       1 UNL1        0.0000
     33 H           3.3873   -2.2235   -3.8588 H         1 UNL1        0.0000
     34 H           0.6671   -3.2621    4.1840 H         1 UNL1        0.0000
     35 H           1.3764   -4.4755    6.2146 H         1 UNL1        0.0000
     36 H           3.1141   -6.2429    6.0715 H         1 UNL1        0.0000
     37 H           4.1449   -6.7908    3.8804 H         1 UNL1        0.0000
     38 H           3.4461   -5.5832    1.8416 H         1 UNL1        0.0000
     39 H          -0.2206   -3.7815   -2.2279 H         1 UNL1        0.0000
     40 H           0.6597   -3.2686   -3.6887 H         1 UNL1        0.0000
     41 H          -1.9994   -2.2717   -3.3465 H         1 UNL1        0.0000
     42 H          -0.8905   -1.6011   -4.5312 H         1 UNL1        0.0000
     43 H          -0.6916    3.5919   -6.5386 H         1 UNL1        0.0000
     44 H          -1.4088    1.9771   -6.6100 H         1 UNL1        0.0000
     45 H           0.0246    2.3060   -5.5607 H         1 UNL1        0.0000
     46 H          -3.5282    3.3188   -3.0209 H         1 UNL1        0.0000
     47 H          -4.2250    1.4922   -1.4649 H         1 UNL1        0.0000
     48 H          -3.1670   -0.7518   -1.6871 H         1 UNL1        0.0000
     49 H           0.8155    0.2085   -2.2902 H         1 UNL1        0.0000
     50 H           1.1096   -0.5574   -3.8670 H         1 UNL1        0.0000
     51 H           5.9818    0.1219   -4.2711 H         1 UNL1        0.0000
     52 H           4.6712   -0.1799   -5.4484 H         1 UNL1        0.0000
     53 H           5.4425   -1.5365   -4.5821 H         1 UNL1        0.0000
     54 H          -0.5143   -1.5171   -1.5300 H         1 UNL1        0.0000
@<TRIPOS>BOND
     1    1    2 2
     2    2    3 am
     3    2   32 1
     4    3   33 1
     5    3    4 1
     6    4    5 1
     7    4    6 1
     8    4   31 1
     9    6    7 1
    10    6    8 1
    11    6   20 1
    12    8    9 1
    13    8   19 2
    14    9   10 1
    15    9   11 1
    16   11   12 2
    17   12   19 1
    18   12   13 1
    19   13   14 ar
    20   13   18 ar
    21   14   34 1
    22   14   15 ar
    23   15   16 ar
    24   15   35 1
    25   16   17 ar
    26   16   36 1
    27   17   18 ar
    28   17   37 1
    29   18   38 1
    30   20   21 1
    31   20   39 1
    32   20   40 1
    33   21   22 1
    34   21   31 1
    35   22   23 1
    36   22   41 1
    37   22   42 1
    38   23   30 ar
    39   23   24 ar
    40   24   25 ar
    41   25   28 ar
    42   25   26 1
    43   26   27 1
    44   27   43 1
    45   27   44 1
    46   27   45 1
    47   28   29 ar
    48   28   46 1
    49   29   30 ar
    50   29   47 1
    51   30   48 1
    52   31   49 1
    53   31   50 1
    54   32   51 1
    55   32   52 1
    56   32   53 1
    57   21   54 1
@<TRIPOS>SUBSTRUCTURE
1 UNL1 1
@<TRIPOS>COMMENT
0.0000



