@<TRIPOS>MOLECULE
*****
58 61 1
SMALL
GASTEIGER

@<TRIPOS>DICT

@<TRIPOS>ATOM
      1 S           3.2497    0.9833   -2.7141 S.2       1 UNL1        0.0000
      2 C           3.3775    0.2996   -1.1842 C.2       1 UNL1        0.0000
      3 N           2.9903    0.8907    0.0370 N.am      1 UNL1        0.0000
      4 C           2.3816    2.2280    0.0846 C.3       1 UNL1        0.0000
      5 C           0.8529    2.1495    0.0138 C.3       1 UNL1        0.0000
      6 C           0.2080    3.5359    0.0572 C.3       1 UNL1        0.0000
      7 C          -1.3151    3.4197    0.0521 C.3       1 UNL1        0.0000
      8 C          -2.0022    4.7714    0.1158 C.2       1 UNL1        0.0000
      9 O          -2.4728    5.2520   -0.9180 O.2       1 UNL1        0.0000
     10 N          -2.0608    5.4334    1.3372 N.am      1 UNL1        0.0000
     11 C          -1.7069    4.8389    2.6265 C.3       1 UNL1        0.0000
     12 C          -1.0346    5.8600    3.5426 C.3       1 UNL1        0.0000
     13 C          -1.8575    7.1452    3.7049 C.3       1 UNL1        0.0000
     14 C          -3.0865    6.9254    4.5894 C.3       1 UNL1        0.0000
     15 C          -2.2344    7.7006    2.3249 C.3       1 UNL1        0.0000
     16 C          -2.8666    6.6524    1.4122 C.3       1 UNL1        0.0000
     17 C           3.0901    0.2390    1.2865 C.2       1 UNL1        0.0000
     18 O           2.7107    0.7196    2.3519 O.2       1 UNL1        0.0000
     19 C           3.6688   -1.0640    1.2093 C.2       1 UNL1        0.0000
     20 N           3.9176   -1.9413    2.2276 N.pl3     1 UNL1        0.0000
     21 H           3.7156   -1.7650    3.2033 H         1 UNL1        0.0000
     22 C           4.4809   -3.0951    1.7186 C.ar      1 UNL1        0.0000
     23 C           4.5856   -2.9331    0.3326 C.ar      1 UNL1        0.0000
     24 C           4.0685   -1.6492    0.0456 C.2       1 UNL1        0.0000
     25 N           3.9181   -0.9679   -1.1322 N.am      1 UNL1        0.0000
     26 C           5.1326   -3.9821   -0.4309 C.ar      1 UNL1        0.0000
     27 C           5.5592   -5.1583    0.2018 C.ar      1 UNL1        0.0000
     28 O           6.0708   -6.1003   -0.6510 O.3       1 UNL1        0.0000
     29 C           6.5071   -7.3247   -0.0741 C.3       1 UNL1        0.0000
     30 C           5.4425   -5.2873    1.5860 C.ar      1 UNL1        0.0000
     31 C           4.9011   -4.2588    2.3702 C.ar      1 UNL1        0.0000
     32 H           2.7690    2.8553   -0.7235 H         1 UNL1        0.0000
     33 H           2.6783    2.7227    1.0178 H         1 UNL1        0.0000
     34 H           0.4780    1.5459    0.8496 H         1 UNL1        0.0000
     35 H           0.5466    1.6323   -0.9033 H         1 UNL1        0.0000
     36 H           0.5337    4.1249   -0.8092 H         1 UNL1        0.0000
     37 H           0.5547    4.0784    0.9434 H         1 UNL1        0.0000
     38 H          -1.6807    2.7801    0.8621 H         1 UNL1        0.0000
     39 H          -1.6397    2.9312   -0.8760 H         1 UNL1        0.0000
     40 H          -1.0391    3.9848    2.5080 H         1 UNL1        0.0000
     41 H          -2.6306    4.4548    3.0739 H         1 UNL1        0.0000
     42 H          -0.0601    6.1253    3.1114 H         1 UNL1        0.0000
     43 H          -0.8335    5.4073    4.5203 H         1 UNL1        0.0000
     44 H          -1.2291    7.8903    4.2099 H         1 UNL1        0.0000
     45 H          -3.7804    6.1928    4.1675 H         1 UNL1        0.0000
     46 H          -3.6338    7.8640    4.7268 H         1 UNL1        0.0000
     47 H          -2.7856    6.5693    5.5807 H         1 UNL1        0.0000
     48 H          -1.3222    8.0748    1.8418 H         1 UNL1        0.0000
     49 H          -2.9097    8.5581    2.4276 H         1 UNL1        0.0000
     50 H          -3.0119    7.0886    0.4184 H         1 UNL1        0.0000
     51 H          -3.8587    6.3637    1.7794 H         1 UNL1        0.0000
     52 H           4.2067   -1.4079   -1.9984 H         1 UNL1        0.0000
     53 H           5.2264   -3.8872   -1.5086 H         1 UNL1        0.0000
     54 H           6.8771   -7.9622   -0.8829 H         1 UNL1        0.0000
     55 H           5.6779   -7.8504    0.4109 H         1 UNL1        0.0000
     56 H           7.3343   -7.1594    0.6241 H         1 UNL1        0.0000
     57 H           5.7670   -6.1873    2.0993 H         1 UNL1        0.0000
     58 H           4.8147   -4.3705    3.4466 H         1 UNL1        0.0000
@<TRIPOS>BOND
     1    1    2 2
     2    2    3 1
     3    2   25 1
     4    3    4 1
     5    3   17 am
     6    4   32 1
     7    4    5 1
     8    4   33 1
     9    5   35 1
    10    5    6 1
    11    5   34 1
    12    6   36 1
    13    6    7 1
    14    6   37 1
    15    7    8 1
    16    7   38 1
    17    7   39 1
    18    8   10 am
    19    8    9 2
    20   10   11 1
    21   10   16 1
    22   11   40 1
    23   11   12 1
    24   11   41 1
    25   12   13 1
    26   12   42 1
    27   12   43 1
    28   13   14 1
    29   13   15 1
    30   13   44 1
    31   14   45 1
    32   14   46 1
    33   14   47 1
    34   15   16 1
    35   15   49 1
    36   15   48 1
    37   16   50 1
    38   16   51 1
    39   17   18 2
    40   17   19 1
    41   19   20 1
    42   19   24 2
    43   20   21 1
    44   20   22 1
    45   22   23 ar
    46   22   31 ar
    47   23   24 1
    48   23   26 ar
    49   24   25 1
    50   25   52 1
    51   26   27 ar
    52   26   53 1
    53   27   30 ar
    54   27   28 1
    55   28   29 1
    56   29   54 1
    57   29   55 1
    58   29   56 1
    59   30   31 ar
    60   30   57 1
    61   31   58 1
@<TRIPOS>SUBSTRUCTURE
1 UNL1 1
@<TRIPOS>COMMENT
0.0000



