@<TRIPOS>MOLECULE
*****
42 45 1
SMALL
GASTEIGER

@<TRIPOS>DICT

@<TRIPOS>ATOM
      1 S           1.9106   -0.4208    0.2296 S.3       1 UNL1        0.0000
      2 C           1.2056    1.1896    0.6771 C.3       1 UNL1        0.0000
      3 C           1.3873    1.4773    2.1637 C.2       1 UNL1        0.0000
      4 O           0.9096    0.7317    3.0146 O.2       1 UNL1        0.0000
      5 N           2.1116    2.6323    2.4113 N.am      1 UNL1        0.0000
      6 C           2.3728    3.2330    3.6611 C.ar      1 UNL1        0.0000
      7 C           1.8558    2.7746    4.8723 C.ar      1 UNL1        0.0000
      8 C           2.1610    3.4473    6.0538 C.ar      1 UNL1        0.0000
      9 F           1.6599    3.0007    7.2134 F         1 UNL1        0.0000
     10 C           2.9717    4.5757    6.0560 C.ar      1 UNL1        0.0000
     11 C           3.4898    5.0432    4.8531 C.ar      1 UNL1        0.0000
     12 C           3.1905    4.3741    3.6625 C.ar      1 UNL1        0.0000
     13 C           3.5872   -0.1282    0.5666 C.2       1 UNL1        0.0000
     14 N           4.1105    1.0593    0.5046 N.2       1 UNL1        0.0000
     15 C           5.4453    1.0743    0.7881 C.2       1 UNL1        0.0000
     16 N           6.3056    2.1712    0.8355 N.pl3     1 UNL1        0.0000
     17 C           6.0382    3.5489    0.5734 C.ar      1 UNL1        0.0000
     18 C           4.8180    3.9794    0.0368 C.ar      1 UNL1        0.0000
     19 C           4.5791    5.3418   -0.1709 C.ar      1 UNL1        0.0000
     20 C           5.5596    6.2815    0.1391 C.ar      1 UNL1        0.0000
     21 C           6.7869    5.8624    0.6456 C.ar      1 UNL1        0.0000
     22 C           7.0283    4.5035    0.8601 C.ar      1 UNL1        0.0000
     23 N           7.5646    1.7816    1.2150 N.2       1 UNL1        0.0000
     24 C           7.4915    0.4577    1.3641 C.2       1 UNL1        0.0000
     25 C           6.2093   -0.0229    1.1186 C.2       1 UNL1        0.0000
     26 C           5.6047   -1.3225    1.1616 C.2       1 UNL1        0.0000
     27 O           6.2069   -2.3538    1.4249 O.2       1 UNL1        0.0000
     28 N           4.2599   -1.2861    0.8681 N.am      1 UNL1        0.0000
     29 H           0.1298    1.1729    0.4735 H         1 UNL1        0.0000
     30 H           1.6356    1.9768    0.0505 H         1 UNL1        0.0000
     31 H           2.5700    3.0642    1.6182 H         1 UNL1        0.0000
     32 H           1.2123    1.9056    4.9424 H         1 UNL1        0.0000
     33 H           3.1912    5.0789    6.9920 H         1 UNL1        0.0000
     34 H           4.1255    5.9248    4.8376 H         1 UNL1        0.0000
     35 H           3.6089    4.7633    2.7378 H         1 UNL1        0.0000
     36 H           4.0424    3.2830   -0.2588 H         1 UNL1        0.0000
     37 H           3.6298    5.6708   -0.5870 H         1 UNL1        0.0000
     38 H           5.3740    7.3397   -0.0274 H         1 UNL1        0.0000
     39 H           7.5613    6.5910    0.8733 H         1 UNL1        0.0000
     40 H           7.9962    4.2050    1.2605 H         1 UNL1        0.0000
     41 H           8.3776   -0.0927    1.6561 H         1 UNL1        0.0000
     42 H           3.7555   -2.1589    0.8874 H         1 UNL1        0.0000
@<TRIPOS>BOND
     1    1    2 1
     2    1   13 1
     3    2   29 1
     4    2   30 1
     5    2    3 1
     6    3    4 2
     7    3    5 am
     8    5   31 1
     9    5    6 1
    10    6    7 ar
    11    6   12 ar
    12    7    8 ar
    13    7   32 1
    14    8    9 1
    15    8   10 ar
    16   10   11 ar
    17   10   33 1
    18   11   12 ar
    19   11   34 1
    20   12   35 1
    21   13   28 1
    22   13   14 2
    23   14   15 1
    24   15   25 2
    25   15   16 1
    26   16   17 1
    27   16   23 1
    28   17   18 ar
    29   17   22 ar
    30   18   36 1
    31   18   19 ar
    32   19   20 ar
    33   19   37 1
    34   20   21 ar
    35   20   38 1
    36   21   22 ar
    37   21   39 1
    38   22   40 1
    39   23   24 2
    40   24   25 1
    41   24   41 1
    42   25   26 1
    43   26   27 2
    44   26   28 am
    45   28   42 1
@<TRIPOS>SUBSTRUCTURE
1 UNL1 1
@<TRIPOS>COMMENT
0.0000



