@<TRIPOS>MOLECULE
*****
43 46 1
SMALL
GASTEIGER

@<TRIPOS>DICT

@<TRIPOS>ATOM
      1 BR          7.3599    1.2159    0.8316 Br        1 UNL1        0.0000
      2 C           5.7259    0.4682    0.2082 C.ar      1 UNL1        0.0000
      3 C           4.6117    1.2762   -0.0796 C.ar      1 UNL1        0.0000
      4 O           4.7646    2.6256    0.0967 O.3       1 UNL1        0.0000
      5 C           3.6520    3.4620   -0.1915 C.3       1 UNL1        0.0000
      6 C           3.4307    0.6636   -0.5138 C.ar      1 UNL1        0.0000
      7 C           3.3641   -0.7264   -0.6578 C.ar      1 UNL1        0.0000
      8 C           4.4850   -1.5148   -0.3863 C.ar      1 UNL1        0.0000
      9 C           4.3784   -2.9883   -0.5247 C.2       1 UNL1        0.0000
     10 O           3.3629   -3.5354   -0.1126 O.2       1 UNL1        0.0000
     11 N           5.4507   -3.5831   -1.1613 N.am      1 UNL1        0.0000
     12 C           5.6713   -4.9653   -1.3300 C.ar      1 UNL1        0.0000
     13 C           6.7156   -5.3572   -2.1697 C.ar      1 UNL1        0.0000
     14 C           7.0011   -6.7127   -2.3582 C.ar      1 UNL1        0.0000
     15 O           8.0518   -6.9845   -3.2003 O.3       1 UNL1        0.0000
     16 C           6.2565   -7.7217   -1.7211 C.ar      1 UNL1        0.0000
     17 C           6.5863   -9.1449   -1.9387 C.2       1 UNL1        0.0000
     18 S           5.4745  -10.4109   -1.5915 S.3       1 UNL1        0.0000
     19 C           6.6185  -11.5815   -2.1129 C.ar      1 UNL1        0.0000
     20 C           7.7756  -10.9270   -2.5336 C.ar      1 UNL1        0.0000
     21 N           7.7360   -9.5436   -2.4549 N.2       1 UNL1        0.0000
     22 C           8.8616  -11.6983   -2.9947 C.ar      1 UNL1        0.0000
     23 C           8.7601  -13.0933   -3.0250 C.ar      1 UNL1        0.0000
     24 C           7.5924  -13.7242   -2.6082 C.ar      1 UNL1        0.0000
     25 C           6.5020  -12.9809   -2.1463 C.ar      1 UNL1        0.0000
     26 C           5.2211   -7.3091   -0.8679 C.ar      1 UNL1        0.0000
     27 C           4.9310   -5.9498   -0.6774 C.ar      1 UNL1        0.0000
     28 C           5.6690   -0.9205    0.0559 C.ar      1 UNL1        0.0000
     29 H           3.9503    4.4955    0.0094 H         1 UNL1        0.0000
     30 H           2.8026    3.2291    0.4589 H         1 UNL1        0.0000
     31 H           3.3732    3.3952   -1.2482 H         1 UNL1        0.0000
     32 H           2.5372    1.2365   -0.7416 H         1 UNL1        0.0000
     33 H           2.4352   -1.1937   -0.9810 H         1 UNL1        0.0000
     34 H           6.1143   -2.9701   -1.6197 H         1 UNL1        0.0000
     35 H           7.3206   -4.6231   -2.6945 H         1 UNL1        0.0000
     36 H           8.2219   -7.9514   -3.1629 H         1 UNL1        0.0000
     37 H           9.7720  -11.2045   -3.3200 H         1 UNL1        0.0000
     38 H           9.6011  -13.6859   -3.3779 H         1 UNL1        0.0000
     39 H           7.5253  -14.8099   -2.6396 H         1 UNL1        0.0000
     40 H           5.5915  -13.4743   -1.8196 H         1 UNL1        0.0000
     41 H           4.6215   -8.0289   -0.3154 H         1 UNL1        0.0000
     42 H           4.1285   -5.6944    0.0091 H         1 UNL1        0.0000
     43 H           6.5289   -1.5330    0.3145 H         1 UNL1        0.0000
@<TRIPOS>BOND
     1    1    2 1
     2    2   28 ar
     3    2    3 ar
     4    3    4 1
     5    3    6 ar
     6    4    5 1
     7    5   29 1
     8    5   30 1
     9    5   31 1
    10    6    7 ar
    11    6   32 1
    12    7    8 ar
    13    7   33 1
    14    8   28 ar
    15    8    9 1
    16    9   10 2
    17    9   11 am
    18   11   12 1
    19   11   34 1
    20   12   27 ar
    21   12   13 ar
    22   13   14 ar
    23   13   35 1
    24   14   15 1
    25   14   16 ar
    26   15   36 1
    27   16   17 1
    28   16   26 ar
    29   17   18 1
    30   17   21 2
    31   18   19 1
    32   19   20 ar
    33   19   25 ar
    34   20   21 1
    35   20   22 ar
    36   22   37 1
    37   22   23 ar
    38   23   24 ar
    39   23   38 1
    40   24   25 ar
    41   24   39 1
    42   25   40 1
    43   26   27 ar
    44   26   41 1
    45   27   42 1
    46   28   43 1
@<TRIPOS>SUBSTRUCTURE
1 UNL1 1
@<TRIPOS>COMMENT
0.0000



