@<TRIPOS>MOLECULE
*****
37 39 1
SMALL
GASTEIGER

@<TRIPOS>DICT

@<TRIPOS>ATOM
      1 BR          9.8895    2.8715    3.2844 Br        1 UNL1        0.0000
      2 C           9.9963    4.7004    2.8160 C.ar      1 UNL1        0.0000
      3 C           9.0810    5.2328    1.9066 C.ar      1 UNL1        0.0000
      4 C           9.1623    6.5866    1.5637 C.ar      1 UNL1        0.0000
      5 C           8.1920    7.1129    0.5841 C.2       1 UNL1        0.0000
      6 N           8.0725    8.3861    0.3623 N.2       1 UNL1        0.0000
      7 N           7.1850    8.7043   -0.6247 N.am      1 UNL1        0.0000
      8 C           6.9416    9.9947   -1.0580 C.2       1 UNL1        0.0000
      9 O           6.4362   10.1539   -2.1720 O.2       1 UNL1        0.0000
     10 C           7.2650   11.1135   -0.2127 C.2       1 UNL1        0.0000
     11 N           7.3247   12.3827   -0.7133 N.pl3     1 UNL1        0.0000
     12 H           7.1817   12.6607   -1.6796 H         1 UNL1        0.0000
     13 N           7.5723   13.3294    0.2020 N.2       1 UNL1        0.0000
     14 C           7.6809   12.6595    1.3615 C.2       1 UNL1        0.0000
     15 C           7.8771   13.3829    2.6227 C.ar      1 UNL1        0.0000
     16 C           8.6976   12.9348    3.6716 C.ar      1 UNL1        0.0000
     17 CL          9.6481   11.4937    3.5853 Cl        1 UNL1        0.0000
     18 C           8.8148   13.6809    4.8533 C.ar      1 UNL1        0.0000
     19 C           8.1243   14.8811    4.9940 C.ar      1 UNL1        0.0000
     20 CL          8.2758   15.7921    6.4449 Cl        1 UNL1        0.0000
     21 C           7.3177   15.3513    3.9653 C.ar      1 UNL1        0.0000
     22 C           7.1971   14.6069    2.7894 C.ar      1 UNL1        0.0000
     23 C           7.4922   11.2658    1.1414 C.2       1 UNL1        0.0000
     24 C          10.1626    7.3887    2.1243 C.ar      1 UNL1        0.0000
     25 O          10.3265    8.7080    1.8122 O.3       1 UNL1        0.0000
     26 C          11.0725    6.8490    3.0304 C.ar      1 UNL1        0.0000
     27 C          10.9898    5.5005    3.3802 C.ar      1 UNL1        0.0000
     28 H           8.3136    4.5958    1.4756 H         1 UNL1        0.0000
     29 H           7.5728    6.3702    0.0481 H         1 UNL1        0.0000
     30 H           6.9027    7.9870   -1.2853 H         1 UNL1        0.0000
     31 H           9.4540   13.3282    5.6590 H         1 UNL1        0.0000
     32 H           6.7831   16.2925    4.0642 H         1 UNL1        0.0000
     33 H           6.5629   14.9890    1.9897 H         1 UNL1        0.0000
     34 H           7.4728   10.4808    1.8842 H         1 UNL1        0.0000
     35 H           9.5869    8.9831    1.2287 H         1 UNL1        0.0000
     36 H          11.8471    7.4801    3.4593 H         1 UNL1        0.0000
     37 H          11.7051    5.0871    4.0869 H         1 UNL1        0.0000
@<TRIPOS>BOND
     1    1    2 1
     2    2    3 ar
     3    2   27 ar
     4    3    4 ar
     5    3   28 1
     6    4   24 ar
     7    4    5 1
     8    5    6 2
     9    5   29 1
    10    6    7 1
    11    7    8 am
    12    7   30 1
    13    8    9 2
    14    8   10 1
    15   10   11 1
    16   10   23 2
    17   11   12 1
    18   11   13 1
    19   13   14 2
    20   14   15 1
    21   14   23 1
    22   15   16 ar
    23   15   22 ar
    24   16   18 ar
    25   16   17 1
    26   18   19 ar
    27   18   31 1
    28   19   21 ar
    29   19   20 1
    30   21   22 ar
    31   21   32 1
    32   22   33 1
    33   23   34 1
    34   24   25 1
    35   24   26 ar
    36   25   35 1
    37   26   27 ar
    38   26   36 1
    39   27   37 1
@<TRIPOS>SUBSTRUCTURE
1 UNL1 1
@<TRIPOS>COMMENT
0.0000



