@<TRIPOS>MOLECULE
*****
54 56 1
SMALL
GASTEIGER

@<TRIPOS>DICT

@<TRIPOS>ATOM
      1 S           0.0078    5.6187   -0.5474 S.3       1 UNL1        0.0000
      2 C          -1.5793    5.4158    0.3383 C.3       1 UNL1        0.0000
      3 C          -2.2379    4.1235   -0.0823 C.2       1 UNL1        0.0000
      4 N          -1.5171    2.9466   -0.0021 N.4       1 UNL1        1.0000
      5 C          -2.0096    1.7912   -0.5501 C.2       1 UNL1        0.0000
      6 N          -1.0890    0.7825   -0.5773 N.2       1 UNL1        0.5000
      7 C          -1.0696   -0.4442   -1.1689 C.2       1 UNL1       -0.5000
      8 N          -2.0769   -0.9939   -1.7663 N.pl3     1 UNL1        0.5000
      9 N           0.0921   -1.1525   -1.0719 N.pl3     1 UNL1        0.5000
     10 C           1.4239   -0.6972   -1.1745 C.ar      1 UNL1        0.0000
     11 C           1.7787    0.6160   -1.5069 C.ar      1 UNL1        0.0000
     12 C           3.1169    1.0334   -1.5091 C.ar      1 UNL1        0.0000
     13 C           4.1319    0.1349   -1.1939 C.ar      1 UNL1        0.0000
     14 O           5.4706    0.4086   -1.1974 O.3       1 UNL1        0.0000
     15 C           5.8460    1.7814   -1.0872 C.3       1 UNL1        0.0000
     16 C           7.3614    1.8595   -1.1374 C.3       1 UNL1        0.0000
     17 C           3.7958   -1.1826   -0.8859 C.ar      1 UNL1        0.0000
     18 C           2.4572   -1.5902   -0.8613 C.ar      1 UNL1        0.0000
     19 N          -3.2112    1.6785   -1.0265 N.am      1 UNL1        0.0000
     20 C          -4.0580    2.7630   -0.9629 C.2       1 UNL1        0.0000
     21 O          -5.2462    2.7125   -1.2632 O.2       1 UNL1        0.0000
     22 C          -3.4942    4.0753   -0.5468 C.2       1 UNL1        0.0000
     23 C           0.5335    7.1562    0.1820 C.ar      1 UNL1        0.0000
     24 C           1.4568    7.1516    1.2298 C.ar      1 UNL1        0.0000
     25 C           1.8772    8.3546    1.8038 C.ar      1 UNL1        0.0000
     26 C           1.3923    9.5767    1.3246 C.ar      1 UNL1        0.0000
     27 C           1.8201   10.8693    1.9554 C.3       1 UNL1        0.0000
     28 C           0.4638    9.5762    0.2771 C.ar      1 UNL1        0.0000
     29 C           0.0425    8.3731   -0.2962 C.ar      1 UNL1        0.0000
     30 H          -2.2223    6.2763    0.1244 H         1 UNL1        0.0000
     31 H          -1.3883    5.3908    1.4167 H         1 UNL1        0.0000
     32 H          -0.5108    3.0802    0.0315 H         1 UNL1        0.0000
     33 H          -2.8589   -0.3170   -1.7201 H         1 UNL1        0.0000
     34 H          -0.0242   -2.0838   -1.4635 H         1 UNL1        0.0000
     35 H           1.0294    1.3367   -1.8221 H         1 UNL1        0.0000
     36 H           3.3273    2.0586   -1.7940 H         1 UNL1        0.0000
     37 H           5.4881    2.1872   -0.1335 H         1 UNL1        0.0000
     38 H           5.4464    2.3704   -1.9191 H         1 UNL1        0.0000
     39 H           7.8127    1.2203   -0.3719 H         1 UNL1        0.0000
     40 H           7.7033    2.8880   -0.9909 H         1 UNL1        0.0000
     41 H           7.7272    1.5042   -2.1068 H         1 UNL1        0.0000
     42 H           4.5806   -1.8986   -0.6532 H         1 UNL1        0.0000
     43 H           2.2297   -2.6194   -0.5918 H         1 UNL1        0.0000
     44 H          -4.1443    4.9337   -0.6450 H         1 UNL1        0.0000
     45 H           1.8591    6.2163    1.6104 H         1 UNL1        0.0000
     46 H           2.5915    8.3309    2.6241 H         1 UNL1        0.0000
     47 H           1.9318   11.6513    1.1970 H         1 UNL1        0.0000
     48 H           2.7879   10.7626    2.4568 H         1 UNL1        0.0000
     49 H           1.0774   11.1900    2.6923 H         1 UNL1        0.0000
     50 H           0.0676   10.5151   -0.1045 H         1 UNL1        0.0000
     51 H          -0.6659    8.4000   -1.1207 H         1 UNL1        0.0000
     52 H          -1.7230    2.7188    1.0333 H         1 UNL1        0.0000
     53 H          -2.0970   -1.9261   -2.2039 H         1 UNL1        0.0000
     54 H          -3.5176    0.8180   -1.4334 H         1 UNL1        0.0000
@<TRIPOS>BOND
     1    1    2 1
     2    1   23 1
     3    2   30 1
     4    2    3 1
     5    2   31 1
     6    3    4 1
     7    3   22 2
     8    4    5 1
     9    4   32 1
    10    5    6 2
    11    5   19 1
    12    6    7 1
    13    7    8 1
    14    7    9 1
    15    8   33 1
    16    9   10 1
    17    9   34 1
    18   10   11 2
    19   10   18 1
    20   11   35 1
    21   11   12 1
    22   12   13 2
    23   12   36 1
    24   13   14 1
    25   13   17 1
    26   14   15 1
    27   15   37 1
    28   15   38 1
    29   15   16 1
    30   16   39 1
    31   16   40 1
    32   16   41 1
    33   17   18 2
    34   17   42 1
    35   18   43 1
    36   19   20 1
    37   20   21 2
    38   20   22 1
    39   22   44 1
    40   23   29 ar
    41   23   24 ar
    42   24   25 ar
    43   24   45 1
    44   25   26 ar
    45   25   46 1
    46   26   28 ar
    47   26   27 1
    48   27   47 1
    49   27   49 1
    50   27   48 1
    51   28   29 ar
    52   28   50 1
    53   29   51 1
    54    4   52 1
    55    8   53 1
    56   19   54 1
@<TRIPOS>SUBSTRUCTURE
1 UNL1 1
@<TRIPOS>COMMENT
0.0000



