@<TRIPOS>MOLECULE
*****
55 58 1
SMALL
GASTEIGER

@<TRIPOS>DICT

@<TRIPOS>ATOM
      1 CL         10.4258    4.6232   -0.6328 Cl        1 UNL1        0.0000
      2 C           9.5778    3.3354    0.1311 C.ar      1 UNL1        0.0000
      3 C           8.5851    2.6509   -0.5662 C.ar      1 UNL1        0.0000
      4 C           7.9040    1.5996    0.0511 C.ar      1 UNL1        0.0000
      5 C           8.2025    1.2358    1.3732 C.ar      1 UNL1        0.0000
      6 C           7.4759    0.0790    2.0271 C.3       1 UNL1        0.0000
      7 N           7.9940   -1.2335    1.6072 N.4       1 UNL1        1.0000
      8 C           9.3585   -1.4648    2.1367 C.3       1 UNL1        0.0000
      9 C           9.8089   -2.8916    2.0690 C.2       1 UNL1        0.0000
     10 C          11.2056   -3.1968    2.4359 C.2       1 UNL1        0.0000
     11 O          12.0160   -2.3246    2.7278 O.2       1 UNL1        0.0000
     12 N          11.5190   -4.5214    2.4661 N.am      1 UNL1        0.0000
     13 C          10.6142   -5.4752    2.1309 C.2       1 UNL1        0.0000
     14 S          11.2473   -7.0854    2.2863 S.3       1 UNL1        0.0000
     15 C           9.7185   -7.9705    2.7123 C.3       1 UNL1        0.0000
     16 C           9.2099   -7.5363    4.0824 C.2       1 UNL1        0.0000
     17 O           8.4397   -6.5891    4.2093 O.2       1 UNL1        0.0000
     18 N           9.7004   -8.3139    5.1224 N.am      1 UNL1        0.0000
     19 C           9.4378   -8.1479    6.4998 C.ar      1 UNL1        0.0000
     20 C           8.7677   -7.0452    7.0380 C.ar      1 UNL1        0.0000
     21 C           8.5347   -6.9405    8.4207 C.ar      1 UNL1        0.0000
     22 C           7.8197   -5.7441    8.9991 C.3       1 UNL1        0.0000
     23 F           7.4815   -4.7997    8.0783 F         1 UNL1        0.0000
     24 F           6.6598   -6.0858    9.6265 F         1 UNL1        0.0000
     25 F           8.5700   -5.0965    9.9347 F         1 UNL1        0.0000
     26 C           8.9788   -7.9673    9.2650 C.ar      1 UNL1        0.0000
     27 C           9.6539   -9.0666    8.7392 C.ar      1 UNL1        0.0000
     28 C           9.8886   -9.1515    7.3650 C.ar      1 UNL1        0.0000
     29 N           9.4121   -5.2383    1.7342 N.2       1 UNL1        0.0000
     30 C           9.0100   -3.9235    1.7532 C.2       1 UNL1        0.0000
     31 C           7.5466   -3.6711    1.4967 C.3       1 UNL1        0.0000
     32 C           7.0871   -2.3087    2.0419 C.3       1 UNL1        0.0000
     33 C           9.2041    1.9367    2.0624 C.ar      1 UNL1        0.0000
     34 C           9.8922    2.9815    1.4414 C.ar      1 UNL1        0.0000
     35 H           8.3423    2.9229   -1.5895 H         1 UNL1        0.0000
     36 H           7.1424    1.0556   -0.5042 H         1 UNL1        0.0000
     37 H           6.4181    0.1685    1.7433 H         1 UNL1        0.0000
     38 H           7.4965    0.1872    3.1201 H         1 UNL1        0.0000
     39 H           9.4189   -1.1467    3.1864 H         1 UNL1        0.0000
     40 H          10.0616   -0.8544    1.5580 H         1 UNL1        0.0000
     41 H          12.4528   -4.7829    2.7363 H         1 UNL1        0.0000
     42 H           9.9316   -9.0445    2.7178 H         1 UNL1        0.0000
     43 H           8.9365   -7.8104    1.9635 H         1 UNL1        0.0000
     44 H          10.2685   -9.1141    4.8723 H         1 UNL1        0.0000
     45 H           8.4224   -6.2337    6.4025 H         1 UNL1        0.0000
     46 H           8.8006   -7.9082   10.3380 H         1 UNL1        0.0000
     47 H           9.9965   -9.8599    9.3996 H         1 UNL1        0.0000
     48 H          10.4149  -10.0228    6.9833 H         1 UNL1        0.0000
     49 H           6.9436   -4.4548    1.9718 H         1 UNL1        0.0000
     50 H           7.3616   -3.7255    0.4169 H         1 UNL1        0.0000
     51 H           7.0255   -2.3446    3.1385 H         1 UNL1        0.0000
     52 H           6.0726   -2.1234    1.6679 H         1 UNL1        0.0000
     53 H           9.4653    1.6622    3.0821 H         1 UNL1        0.0000
     54 H          10.6742    3.5079    1.9816 H         1 UNL1        0.0000
     55 H           8.0446   -1.2484    0.5285 H         1 UNL1        0.0000
@<TRIPOS>BOND
     1    1    2 1
     2    2    3 ar
     3    2   34 ar
     4    3    4 ar
     5    3   35 1
     6    4   36 1
     7    4    5 ar
     8    5    6 1
     9    5   33 ar
    10    6    7 1
    11    6   37 1
    12    6   38 1
    13    7   32 1
    14    7    8 1
    15    8   39 1
    16    8   40 1
    17    8    9 1
    18    9   10 1
    19    9   30 2
    20   10   11 2
    21   10   12 am
    22   12   13 1
    23   12   41 1
    24   13   14 1
    25   13   29 2
    26   14   15 1
    27   15   16 1
    28   15   42 1
    29   15   43 1
    30   16   18 am
    31   16   17 2
    32   18   44 1
    33   18   19 1
    34   19   28 ar
    35   19   20 ar
    36   20   21 ar
    37   20   45 1
    38   21   26 ar
    39   21   22 1
    40   22   23 1
    41   22   24 1
    42   22   25 1
    43   26   27 ar
    44   26   46 1
    45   27   28 ar
    46   27   47 1
    47   28   48 1
    48   29   30 1
    49   30   31 1
    50   31   32 1
    51   31   49 1
    52   31   50 1
    53   32   51 1
    54   32   52 1
    55   33   53 1
    56   33   34 ar
    57   34   54 1
    58    7   55 1
@<TRIPOS>SUBSTRUCTURE
1 UNL1 1
@<TRIPOS>COMMENT
0.0000



