@<TRIPOS>MOLECULE
*****
53 56 1
SMALL
GASTEIGER

@<TRIPOS>DICT

@<TRIPOS>ATOM
      1 S           0.7622    0.4734    0.2071 S.3       1 UNL1        0.0000
      2 C           0.1081   -1.1348   -0.3222 C.3       1 UNL1        0.0000
      3 C          -1.4002   -1.1559   -0.2766 C.ar      1 UNL1        0.0000
      4 C          -2.0693   -1.6863    0.8359 C.ar      1 UNL1        0.0000
      5 C          -3.4602   -1.6949    0.8727 C.ar      1 UNL1        0.0000
      6 F          -4.0869   -2.2105    1.9385 F         1 UNL1        0.0000
      7 C          -4.2090   -1.1776   -0.1770 C.ar      1 UNL1        0.0000
      8 C          -3.5565   -0.6392   -1.2842 C.ar      1 UNL1        0.0000
      9 C          -2.1594   -0.6272   -1.3339 C.ar      1 UNL1        0.0000
     10 C           2.4646    0.1494    0.1459 C.2       1 UNL1        0.0000
     11 N           2.9579   -1.0372    0.0368 N.2       1 UNL1        0.0000
     12 C           4.3200   -1.1226    0.0200 C.2       1 UNL1        0.0000
     13 N           4.8178   -2.3784   -0.1324 N.am      1 UNL1        0.0000
     14 C           6.1369   -2.7285   -0.1131 C.2       1 UNL1        0.0000
     15 O           6.4863   -3.8915   -0.3044 O.2       1 UNL1        0.0000
     16 C           7.1319   -1.6587    0.2850 C.3       1 UNL1        0.0000
     17 C           6.6443   -0.2273    0.0552 C.3       1 UNL1        0.0000
     18 C           7.1505    0.2720   -1.3058 C.2       1 UNL1        0.0000
     19 O           6.4601    0.1787   -2.3163 O.2       1 UNL1        0.0000
     20 N           8.4520    0.7484   -1.2398 N.am      1 UNL1        0.0000
     21 C           9.2545    1.2251   -2.2979 C.ar      1 UNL1        0.0000
     22 C           8.8294    1.3321   -3.6224 C.ar      1 UNL1        0.0000
     23 C           9.6953    1.7975   -4.6327 C.ar      1 UNL1        0.0000
     24 C           9.1822    1.8941   -6.0444 C.3       1 UNL1        0.0000
     25 C          11.0097    2.1770   -4.3008 C.ar      1 UNL1        0.0000
     26 C          11.9949    2.6370   -5.3401 C.3       1 UNL1        0.0000
     27 C          11.4327    2.0632   -2.9704 C.ar      1 UNL1        0.0000
     28 C          10.5630    1.6004   -1.9804 C.ar      1 UNL1        0.0000
     29 C           5.1597   -0.0876    0.1217 C.2       1 UNL1        0.0000
     30 C           4.5654    1.2506    0.2717 C.2       1 UNL1        0.0000
     31 O           5.2559    2.2491    0.4384 O.2       1 UNL1        0.0000
     32 N           3.2059    1.2831    0.2490 N.am      1 UNL1        0.0000
     33 H           0.4994   -1.9294    0.3233 H         1 UNL1        0.0000
     34 H           0.4458   -1.3516   -1.3423 H         1 UNL1        0.0000
     35 H          -1.5207   -2.0953    1.6795 H         1 UNL1        0.0000
     36 H          -5.2927   -1.1948   -0.1238 H         1 UNL1        0.0000
     37 H          -4.1337   -0.2266   -2.1078 H         1 UNL1        0.0000
     38 H          -1.6642   -0.1976   -2.2030 H         1 UNL1        0.0000
     39 H           4.1533   -3.1217   -0.3060 H         1 UNL1        0.0000
     40 H           8.0691   -1.8535   -0.2492 H         1 UNL1        0.0000
     41 H           7.3265   -1.8052    1.3552 H         1 UNL1        0.0000
     42 H           7.0916    0.4053    0.8340 H         1 UNL1        0.0000
     43 H           8.8911    0.7673   -0.3280 H         1 UNL1        0.0000
     44 H           7.8170    1.0568   -3.9026 H         1 UNL1        0.0000
     45 H           8.1803    1.4625   -6.1406 H         1 UNL1        0.0000
     46 H           9.8391    1.3477   -6.7286 H         1 UNL1        0.0000
     47 H           9.1233    2.9429   -6.3526 H         1 UNL1        0.0000
     48 H          11.5202    3.2864   -6.0815 H         1 UNL1        0.0000
     49 H          12.4329    1.7709   -5.8463 H         1 UNL1        0.0000
     50 H          12.8048    3.2179   -4.8854 H         1 UNL1        0.0000
     51 H          12.4499    2.3331   -2.6941 H         1 UNL1        0.0000
     52 H          10.9340    1.5298   -0.9616 H         1 UNL1        0.0000
     53 H           2.7451    2.1743    0.3507 H         1 UNL1        0.0000
@<TRIPOS>BOND
     1    1    2 1
     2    1   10 1
     3    2    3 1
     4    2   34 1
     5    2   33 1
     6    3    9 ar
     7    3    4 ar
     8    4   35 1
     9    4    5 ar
    10    5    6 1
    11    5    7 ar
    12    7    8 ar
    13    7   36 1
    14    8    9 ar
    15    8   37 1
    16    9   38 1
    17   10   11 2
    18   10   32 1
    19   11   12 1
    20   12   29 2
    21   12   13 1
    22   13   14 am
    23   13   39 1
    24   14   15 2
    25   14   16 1
    26   16   17 1
    27   16   40 1
    28   16   41 1
    29   17   18 1
    30   17   29 1
    31   17   42 1
    32   18   19 2
    33   18   20 am
    34   20   21 1
    35   20   43 1
    36   21   22 ar
    37   21   28 ar
    38   22   44 1
    39   22   23 ar
    40   23   24 1
    41   23   25 ar
    42   24   45 1
    43   24   46 1
    44   24   47 1
    45   25   27 ar
    46   25   26 1
    47   26   48 1
    48   26   49 1
    49   26   50 1
    50   27   28 ar
    51   27   51 1
    52   28   52 1
    53   29   30 1
    54   30   31 2
    55   30   32 am
    56   32   53 1
@<TRIPOS>SUBSTRUCTURE
1 UNL1 1
@<TRIPOS>COMMENT
0.0000



