@<TRIPOS>MOLECULE
*****
50 54 1
SMALL
GASTEIGER

@<TRIPOS>DICT

@<TRIPOS>ATOM
      1 O           3.0215   -3.2892   -0.1143 O.2       1 UNL1        0.0000
      2 C           3.7181   -2.3392   -0.4591 C.2       1 UNL1        0.0000
      3 N           4.2409   -1.4071    0.4256 N.am      1 UNL1        0.0000
      4 C           4.0937   -1.3475    1.8262 C.ar      1 UNL1        0.0000
      5 C           3.3287   -2.2453    2.5741 C.ar      1 UNL1        0.0000
      6 C           3.2295   -2.1235    3.9704 C.ar      1 UNL1        0.0000
      7 C           2.4012   -3.1090    4.7415 C.3       1 UNL1        0.0000
      8 C           3.9112   -1.0903    4.6187 C.ar      1 UNL1        0.0000
      9 C           4.6761   -0.1885    3.8821 C.ar      1 UNL1        0.0000
     10 C           4.7651   -0.3158    2.4940 C.ar      1 UNL1        0.0000
     11 C           4.0790   -2.1190   -1.8704 C.2       1 UNL1        0.0000
     12 C           3.7127   -2.8784   -2.9836 C.2       1 UNL1        0.0000
     13 C           2.8148   -4.0794   -2.9518 C.3       1 UNL1        0.0000
     14 C           4.3473   -2.3802   -4.1796 C.2       1 UNL1        0.0000
     15 C           4.3164   -2.8856   -5.5401 C.2       1 UNL1        0.0000
     16 O           3.7195   -3.8962   -5.8924 O.2       1 UNL1        0.0000
     17 N           5.0453   -2.1274   -6.4293 N.am      1 UNL1        0.0000
     18 C           5.7599   -0.9954   -6.0896 C.2       1 UNL1        0.0000
     19 C           6.4920   -0.3231   -7.2165 C.2       1 UNL1        0.0000
     20 C           6.4962   -0.8590   -8.5989 C.2       1 UNL1        0.0000
     21 O           5.8818   -1.8853   -8.8820 O.2       1 UNL1        0.0000
     22 O           7.2154   -0.1651   -9.5627 O.3       1 UNL1        0.0000
     23 C           7.9079    1.0165   -9.2492 C.ar      1 UNL1        0.0000
     24 C           7.8957    1.5233   -7.9542 C.ar      1 UNL1        0.0000
     25 C           8.5929    2.7032   -7.6816 C.ar      1 UNL1        0.0000
     26 C           9.2898    3.3575   -8.7033 C.ar      1 UNL1        0.0000
     27 C           9.2849    2.8253   -9.9915 C.ar      1 UNL1        0.0000
     28 O           9.9516    3.4339  -11.0124 O.3       1 UNL1        0.0000
     29 C           8.5967    1.6531  -10.2771 C.ar      1 UNL1        0.0000
     30 C           7.1585    0.8073   -6.9268 C.2       1 UNL1        0.0000
     31 N           5.8014   -0.5370   -4.8713 N.2       1 UNL1        0.0000
     32 C           5.0973   -1.2490   -3.9548 C.2       1 UNL1        0.0000
     33 S           5.0805   -0.7943   -2.3210 S.3       1 UNL1        0.0000
     34 H           4.8160   -0.6881    0.0048 H         1 UNL1        0.0000
     35 H           2.7892   -3.0586    2.0984 H         1 UNL1        0.0000
     36 H           2.8163   -4.1161    4.6320 H         1 UNL1        0.0000
     37 H           1.3695   -3.1030    4.3748 H         1 UNL1        0.0000
     38 H           2.3781   -2.8669    5.8089 H         1 UNL1        0.0000
     39 H           3.8503   -0.9815    5.6990 H         1 UNL1        0.0000
     40 H           5.2048    0.6143    4.3895 H         1 UNL1        0.0000
     41 H           5.3704    0.4016    1.9463 H         1 UNL1        0.0000
     42 H           2.0237   -3.9743   -2.2047 H         1 UNL1        0.0000
     43 H           3.3972   -4.9785   -2.7281 H         1 UNL1        0.0000
     44 H           2.3036   -4.2248   -3.9072 H         1 UNL1        0.0000
     45 H           5.0433   -2.4728   -7.3872 H         1 UNL1        0.0000
     46 H           8.6019    3.1247   -6.6788 H         1 UNL1        0.0000
     47 H           9.8265    4.2740   -8.4764 H         1 UNL1        0.0000
     48 H          10.3818    4.2375  -10.6762 H         1 UNL1        0.0000
     49 H           8.5975    1.2452  -11.2829 H         1 UNL1        0.0000
     50 H           7.1723    1.2243   -5.9233 H         1 UNL1        0.0000
@<TRIPOS>BOND
     1    1    2 2
     2    2    3 am
     3    2   11 1
     4    3   34 1
     5    3    4 1
     6    4   10 ar
     7    4    5 ar
     8    5    6 ar
     9    5   35 1
    10    6    8 ar
    11    6    7 1
    12    7   36 1
    13    7   37 1
    14    7   38 1
    15    8    9 ar
    16    8   39 1
    17    9   10 ar
    18    9   40 1
    19   10   41 1
    20   11   12 2
    21   11   33 1
    22   12   13 1
    23   12   14 1
    24   13   42 1
    25   13   43 1
    26   13   44 1
    27   14   32 2
    28   14   15 1
    29   15   17 am
    30   15   16 2
    31   17   18 1
    32   17   45 1
    33   18   19 1
    34   18   31 2
    35   19   20 1
    36   19   30 2
    37   20   21 2
    38   20   22 1
    39   22   23 1
    40   23   24 ar
    41   23   29 ar
    42   24   30 1
    43   24   25 ar
    44   25   46 1
    45   25   26 ar
    46   26   47 1
    47   26   27 ar
    48   27   29 ar
    49   27   28 1
    50   28   48 1
    51   29   49 1
    52   30   50 1
    53   31   32 1
    54   32   33 1
@<TRIPOS>SUBSTRUCTURE
1 UNL1 1
@<TRIPOS>COMMENT
0.0000



