@<TRIPOS>MOLECULE
*****
50 52 1
SMALL
GASTEIGER

@<TRIPOS>DICT

@<TRIPOS>ATOM
      1 BR          8.8223   -5.3628    2.1273 Br        1 UNL1        0.0000
      2 C           9.1422   -3.9243    0.9129 C.ar      1 UNL1        0.0000
      3 C           9.8398   -4.1319   -0.2991 C.ar      1 UNL1        0.0000
      4 C          10.3772   -5.4935   -0.6750 C.3       1 UNL1        0.0000
      5 O          11.4391   -5.8297    0.2121 O.3       1 UNL1        0.0000
      6 C          11.9010   -7.1558   -0.0130 C.3       1 UNL1        0.0000
      7 C           9.9956   -3.0341   -1.1708 C.ar      1 UNL1        0.0000
      8 C          10.6968   -3.1356   -2.4160 C.1       1 UNL1        0.0000
      9 N          11.2752   -3.2607   -3.4150 N.1       1 UNL1        0.0000
     10 C           9.4172   -1.8216   -0.8172 C.ar      1 UNL1        0.0000
     11 O           9.4381   -0.7925   -1.7391 O.3       1 UNL1        0.0000
     12 C           8.4135    0.1720   -1.5066 C.3       1 UNL1        0.0000
     13 C           6.9727   -0.3712   -1.5113 C.2       1 UNL1        0.0000
     14 O           6.6457   -1.4206   -2.0709 O.2       1 UNL1        0.0000
     15 N           6.0236    0.3767   -0.8493 N.am      1 UNL1        0.0000
     16 N           6.3013    1.5760   -0.2743 N.2       1 UNL1        0.0000
     17 C           5.3035    2.1407    0.3396 C.2       1 UNL1        0.0000
     18 C           5.4468    3.4674    0.9966 C.ar      1 UNL1        0.0000
     19 C           6.7192    4.0655    1.0673 C.ar      1 UNL1        0.0000
     20 O           7.8611    3.4906    0.5760 O.3       1 UNL1        0.0000
     21 C           6.8920    5.3073    1.6600 C.ar      1 UNL1        0.0000
     22 C           5.7947    5.9744    2.1914 C.ar      1 UNL1        0.0000
     23 C           4.5124    5.4097    2.1413 C.ar      1 UNL1        0.0000
     24 C           4.3086    4.1367    1.5420 C.ar      1 UNL1        0.0000
     25 C           2.9765    3.6423    1.5318 C.ar      1 UNL1        0.0000
     26 C           1.9126    4.3630    2.0826 C.ar      1 UNL1        0.0000
     27 C           2.1407    5.6024    2.6597 C.ar      1 UNL1        0.0000
     28 C           3.4321    6.1207    2.6878 C.ar      1 UNL1        0.0000
     29 N           8.7885   -1.6023    0.3587 N.ar      1 UNL1        0.0000
     30 C           8.6522   -2.6456    1.2112 C.ar      1 UNL1        0.0000
     31 C           7.9020   -2.3313    2.4738 C.3       1 UNL1        0.0000
     32 H          10.7580   -5.5269   -1.7002 H         1 UNL1        0.0000
     33 H           9.5685   -6.2327   -0.6205 H         1 UNL1        0.0000
     34 H          12.6556   -7.3917    0.7417 H         1 UNL1        0.0000
     35 H          12.3572   -7.2340   -1.0042 H         1 UNL1        0.0000
     36 H          11.0795   -7.8735    0.0807 H         1 UNL1        0.0000
     37 H           8.4697    0.8948   -2.3289 H         1 UNL1        0.0000
     38 H           8.6387    0.7211   -0.5859 H         1 UNL1        0.0000
     39 H           5.0840   -0.0070   -0.8358 H         1 UNL1        0.0000
     40 H           4.3266    1.6358    0.3809 H         1 UNL1        0.0000
     41 H           7.6075    2.6360    0.1684 H         1 UNL1        0.0000
     42 H           7.8813    5.7553    1.7053 H         1 UNL1        0.0000
     43 H           5.9538    6.9497    2.6481 H         1 UNL1        0.0000
     44 H           2.7284    2.6816    1.0914 H         1 UNL1        0.0000
     45 H           0.9059    3.9528    2.0564 H         1 UNL1        0.0000
     46 H           1.3169    6.1683    3.0869 H         1 UNL1        0.0000
     47 H           3.5895    7.0969    3.1436 H         1 UNL1        0.0000
     48 H           7.6368   -1.2685    2.5107 H         1 UNL1        0.0000
     49 H           8.5148   -2.5464    3.3542 H         1 UNL1        0.0000
     50 H           6.9698   -2.9027    2.5191 H         1 UNL1        0.0000
@<TRIPOS>BOND
     1    1    2 1
     2    2    3 ar
     3    2   30 ar
     4    3    4 1
     5    3    7 ar
     6    4    5 1
     7    4   33 1
     8    4   32 1
     9    5    6 1
    10    6   34 1
    11    6   36 1
    12    6   35 1
    13    7   10 ar
    14    7    8 1
    15    8    9 3
    16   10   29 ar
    17   10   11 1
    18   11   12 1
    19   12   37 1
    20   12   13 1
    21   12   38 1
    22   13   14 2
    23   13   15 1
    24   15   16 1
    25   15   39 1
    26   16   17 2
    27   17   18 1
    28   17   40 1
    29   18   19 ar
    30   18   24 ar
    31   19   20 1
    32   19   21 ar
    33   20   41 1
    34   21   22 ar
    35   21   42 1
    36   22   23 ar
    37   22   43 1
    38   23   24 ar
    39   23   28 ar
    40   24   25 ar
    41   25   26 ar
    42   25   44 1
    43   26   45 1
    44   26   27 ar
    45   27   28 ar
    46   27   46 1
    47   28   47 1
    48   29   30 ar
    49   30   31 1
    50   31   49 1
    51   31   48 1
    52   31   50 1
@<TRIPOS>SUBSTRUCTURE
1 UNL1 1
@<TRIPOS>COMMENT
0.0000



