@<TRIPOS>MOLECULE
*****
65 69 1
SMALL
GASTEIGER

@<TRIPOS>DICT

@<TRIPOS>ATOM
      1 S           2.1229    0.8857   -5.2664 S.3       1 UNL1        0.0000
      2 C           1.0793    0.1517   -3.9719 C.3       1 UNL1        0.0000
      3 C           1.6849   -1.1089   -3.3523 C.2       1 UNL1        0.0000
      4 O           2.8002   -1.5298   -3.6692 O.2       1 UNL1        0.0000
      5 N           0.9141   -1.7740   -2.3918 N.am      1 UNL1        0.0000
      6 C          -0.3359   -1.2241   -1.8370 C.3       1 UNL1        0.0000
      7 C          -1.2071   -2.2801   -1.1247 C.3       1 UNL1        0.0000
      8 N          -0.3898   -2.9959   -0.1309 N.4       1 UNL1        1.0000
      9 C          -1.0442   -3.7619    0.8405 C.ar      1 UNL1        0.0000
     10 C          -2.2980   -4.3596    0.6500 C.ar      1 UNL1        0.0000
     11 C          -2.8983   -5.1098    1.6677 C.ar      1 UNL1        0.0000
     12 C          -2.2509   -5.2594    2.8868 C.ar      1 UNL1        0.0000
     13 F          -2.8304   -5.9724    3.8612 F         1 UNL1        0.0000
     14 C          -1.0120   -4.6784    3.1075 C.ar      1 UNL1        0.0000
     15 C          -0.4138   -3.9383    2.0859 C.ar      1 UNL1        0.0000
     16 C           0.7402   -3.7108   -0.7660 C.3       1 UNL1        0.0000
     17 C           1.6378   -2.7135   -1.5186 C.3       1 UNL1        0.0000
     18 C           3.5433    1.2193   -4.3250 C.2       1 UNL1        0.0000
     19 N           3.5204    1.9917   -3.2909 N.2       1 UNL1        0.0000
     20 C           4.7240    2.1669   -2.6409 C.2       1 UNL1        0.0000
     21 C           5.8726    1.5672   -2.9921 C.2       1 UNL1        0.0000
     22 C           5.8468    0.6741   -4.1675 C.2       1 UNL1        0.0000
     23 O           6.8323    0.0384   -4.5252 O.2       1 UNL1        0.0000
     24 N           4.6495    0.5997   -4.8072 N.am      1 UNL1        0.0000
     25 C           7.1633    1.6910   -2.2421 C.3       1 UNL1        0.0000
     26 N           7.1723    2.6903   -1.1436 N.4       1 UNL1        1.0000
     27 C           8.2826    2.3581   -0.2259 C.3       1 UNL1        0.0000
     28 C           8.4968    3.3368    0.9107 C.ar      1 UNL1        0.0000
     29 C           7.9100    3.1018    2.1672 C.ar      1 UNL1        0.0000
     30 C           8.1105    3.9922    3.2219 C.ar      1 UNL1        0.0000
     31 C           8.9092    5.1115    3.0278 C.ar      1 UNL1        0.0000
     32 F           9.1099    5.9608    4.0441 F         1 UNL1        0.0000
     33 C           9.5034    5.3621    1.7964 C.ar      1 UNL1        0.0000
     34 C           9.2909    4.4803    0.7341 C.ar      1 UNL1        0.0000
     35 C           5.8689    2.7265   -0.4590 C.3       1 UNL1        0.0000
     36 C           4.7135    3.0492   -1.4225 C.3       1 UNL1        0.0000
     37 H           0.1290   -0.1102   -4.4455 H         1 UNL1        0.0000
     38 H           0.8994    0.8940   -3.1885 H         1 UNL1        0.0000
     39 H          -0.9250   -0.7612   -2.6335 H         1 UNL1        0.0000
     40 H          -0.0495   -0.4356   -1.1309 H         1 UNL1        0.0000
     41 H          -1.6070   -2.9824   -1.8679 H         1 UNL1        0.0000
     42 H          -2.0503   -1.7701   -0.6436 H         1 UNL1        0.0000
     43 H          -2.8216   -4.2700   -0.2967 H         1 UNL1        0.0000
     44 H          -3.8653   -5.5778    1.5144 H         1 UNL1        0.0000
     45 H          -0.5213   -4.7961    4.0677 H         1 UNL1        0.0000
     46 H           0.5497   -3.4680    2.2696 H         1 UNL1        0.0000
     47 H           0.3516   -4.4598   -1.4688 H         1 UNL1        0.0000
     48 H           1.3558   -4.2379   -0.0271 H         1 UNL1        0.0000
     49 H           2.3826   -3.2687   -2.0993 H         1 UNL1        0.0000
     50 H           2.1842   -2.0976   -0.7929 H         1 UNL1        0.0000
     51 H           4.5568   -0.0474   -5.5735 H         1 UNL1        0.0000
     52 H           7.9625    1.9626   -2.9431 H         1 UNL1        0.0000
     53 H           7.3987    0.6931   -1.8467 H         1 UNL1        0.0000
     54 H           9.2196    2.3161   -0.7990 H         1 UNL1        0.0000
     55 H           8.1507    1.3529    0.1982 H         1 UNL1        0.0000
     56 H           7.2870    2.2242    2.3250 H         1 UNL1        0.0000
     57 H           7.6518    3.8190    4.1898 H         1 UNL1        0.0000
     58 H          10.1268    6.2415    1.6713 H         1 UNL1        0.0000
     59 H           9.7532    4.6825   -0.2297 H         1 UNL1        0.0000
     60 H           5.8620    3.5092    0.3075 H         1 UNL1        0.0000
     61 H           5.6710    1.7706    0.0443 H         1 UNL1        0.0000
     62 H           4.7761    4.0965   -1.7449 H         1 UNL1        0.0000
     63 H           3.7674    2.9322   -0.8805 H         1 UNL1        0.0000
     64 H           0.0891   -2.2043    0.4263 H         1 UNL1        0.0000
     65 H           7.3622    3.6638   -1.5711 H         1 UNL1        0.0000
@<TRIPOS>BOND
     1    1    2 1
     2    1   18 1
     3    2    3 1
     4    2   37 1
     5    2   38 1
     6    3    4 2
     7    3    5 am
     8    5    6 1
     9    5   17 1
    10    6    7 1
    11    6   39 1
    12    6   40 1
    13    7    8 1
    14    7   41 1
    15    7   42 1
    16    8    9 1
    17    8   16 1
    18    9   10 ar
    19    9   15 ar
    20   10   11 ar
    21   10   43 1
    22   11   44 1
    23   11   12 ar
    24   12   13 1
    25   12   14 ar
    26   14   15 ar
    27   14   45 1
    28   15   46 1
    29   16   17 1
    30   16   47 1
    31   16   48 1
    32   17   49 1
    33   17   50 1
    34   18   19 2
    35   18   24 1
    36   19   20 1
    37   20   21 2
    38   20   36 1
    39   21   25 1
    40   21   22 1
    41   22   23 2
    42   22   24 am
    43   24   51 1
    44   25   26 1
    45   25   52 1
    46   25   53 1
    47   26   27 1
    48   26   35 1
    49   27   28 1
    50   27   54 1
    51   27   55 1
    52   28   29 ar
    53   28   34 ar
    54   29   30 ar
    55   29   56 1
    56   30   57 1
    57   30   31 ar
    58   31   32 1
    59   31   33 ar
    60   33   34 ar
    61   33   58 1
    62   34   59 1
    63   35   36 1
    64   35   60 1
    65   35   61 1
    66   36   62 1
    67   36   63 1
    68    8   64 1
    69   26   65 1
@<TRIPOS>SUBSTRUCTURE
1 UNL1 1
@<TRIPOS>COMMENT
0.0000



