@<TRIPOS>MOLECULE
*****
53 56 1
SMALL
GASTEIGER

@<TRIPOS>DICT

@<TRIPOS>ATOM
      1 S           6.8041   -1.1219   -4.9097 S.3       1 UNL1        0.0000
      2 C           6.3650   -2.6828   -5.7169 C.3       1 UNL1        0.0000
      3 C           5.1311   -2.5326   -6.5923 C.2       1 UNL1        0.0000
      4 O           3.9974   -2.5370   -6.1006 O.2       1 UNL1        0.0000
      5 N           5.2383   -2.5244   -7.9545 N.am      1 UNL1        0.0000
      6 C           6.3936   -2.3434   -8.6538 C.2       1 UNL1        0.0000
      7 S           6.3750   -2.8972  -10.2666 S.3       1 UNL1        0.0000
      8 C           8.0701   -2.5712  -10.2981 C.2       1 UNL1        0.0000
      9 C           8.9243   -3.0190  -11.4337 C.3       1 UNL1        0.0000
     10 C          10.2495   -3.5669  -10.9543 C.2       1 UNL1        0.0000
     11 O          11.2506   -3.5812  -11.6656 O.2       1 UNL1        0.0000
     12 O          10.1849   -4.1091   -9.7099 O.3       1 UNL1        0.0000
     13 C          11.4292   -4.4875   -9.1032 C.3       1 UNL1        0.0000
     14 C          11.6430   -5.9763   -9.2776 C.3       1 UNL1        0.0000
     15 N           8.4931   -1.9073   -9.2408 N.2       1 UNL1        0.0000
     16 N           7.5312   -1.8332   -8.2583 N.2       1 UNL1        0.0000
     17 C           8.3851   -1.6301   -4.2605 C.ar      1 UNL1        0.0000
     18 N           9.2085   -2.3016   -5.1113 N.ar      1 UNL1        0.0000
     19 N          10.3814   -2.7718   -4.7045 N.ar      1 UNL1        0.0000
     20 C          10.7047   -2.5365   -3.4116 C.ar      1 UNL1        0.0000
     21 C           9.8389   -1.8337   -2.5916 C.ar      1 UNL1        0.0000
     22 N          10.4310   -1.7454   -1.3554 N.pl3     1 UNL1        0.0000
     23 C           9.8660   -1.0318   -0.2216 C.3       1 UNL1        0.0000
     24 C           8.9934   -1.9284    0.6525 C.3       1 UNL1        0.0000
     25 C           8.4850   -1.1826    1.8758 C.3       1 UNL1        0.0000
     26 C          11.6460   -2.4154   -1.3578 C.ar      1 UNL1        0.0000
     27 C          11.8403   -2.9091   -2.6544 C.ar      1 UNL1        0.0000
     28 C          13.0140   -3.6316   -2.9492 C.ar      1 UNL1        0.0000
     29 C          13.9564   -3.8516   -1.9421 C.ar      1 UNL1        0.0000
     30 C          13.7430   -3.3615   -0.6570 C.ar      1 UNL1        0.0000
     31 C          12.5897   -2.6343   -0.3406 C.ar      1 UNL1        0.0000
     32 N           8.6374   -1.3443   -2.9628 N.ar      1 UNL1        0.0000
     33 H           6.1225   -3.4221   -4.9440 H         1 UNL1        0.0000
     34 H           7.1887   -3.1197   -6.2841 H         1 UNL1        0.0000
     35 H           4.3835   -2.6670   -8.4721 H         1 UNL1        0.0000
     36 H           9.1246   -2.1604  -12.0835 H         1 UNL1        0.0000
     37 H           8.4375   -3.8037  -12.0227 H         1 UNL1        0.0000
     38 H          11.3560   -4.2442   -8.0376 H         1 UNL1        0.0000
     39 H          12.2715   -3.9135   -9.5061 H         1 UNL1        0.0000
     40 H          10.8074   -6.5358   -8.8443 H         1 UNL1        0.0000
     41 H          12.5698   -6.2956   -8.7928 H         1 UNL1        0.0000
     42 H          11.6889   -6.2402  -10.3387 H         1 UNL1        0.0000
     43 H           9.2895   -0.1846   -0.6108 H         1 UNL1        0.0000
     44 H          10.6978   -0.6104    0.3545 H         1 UNL1        0.0000
     45 H           9.5583   -2.8100    0.9785 H         1 UNL1        0.0000
     46 H           8.1400   -2.2977    0.0717 H         1 UNL1        0.0000
     47 H           7.9377   -0.2793    1.5883 H         1 UNL1        0.0000
     48 H           9.3151   -0.8888    2.5266 H         1 UNL1        0.0000
     49 H           7.8099   -1.8197    2.4556 H         1 UNL1        0.0000
     50 H          13.1793   -4.0176   -3.9518 H         1 UNL1        0.0000
     51 H          14.8603   -4.4127   -2.1668 H         1 UNL1        0.0000
     52 H          14.4864   -3.5472    0.1154 H         1 UNL1        0.0000
     53 H          12.4401   -2.2615    0.6679 H         1 UNL1        0.0000
@<TRIPOS>BOND
     1    1    2 1
     2    1   17 1
     3    2   34 1
     4    2    3 1
     5    2   33 1
     6    3    4 2
     7    3    5 am
     8    5    6 1
     9    5   35 1
    10    6   16 2
    11    6    7 1
    12    7    8 1
    13    8   15 2
    14    8    9 1
    15    9   10 1
    16    9   36 1
    17    9   37 1
    18   10   11 2
    19   10   12 1
    20   12   13 1
    21   13   38 1
    22   13   14 1
    23   13   39 1
    24   14   40 1
    25   14   41 1
    26   14   42 1
    27   15   16 1
    28   17   18 ar
    29   17   32 ar
    30   18   19 ar
    31   19   20 ar
    32   20   21 ar
    33   20   27 1
    34   21   22 1
    35   21   32 ar
    36   22   23 1
    37   22   26 1
    38   23   43 1
    39   23   44 1
    40   23   24 1
    41   24   46 1
    42   24   25 1
    43   24   45 1
    44   25   47 1
    45   25   48 1
    46   25   49 1
    47   26   27 ar
    48   26   31 ar
    49   27   28 ar
    50   28   29 ar
    51   28   50 1
    52   29   30 ar
    53   29   51 1
    54   30   31 ar
    55   30   52 1
    56   31   53 1
@<TRIPOS>SUBSTRUCTURE
1 UNL1 1
@<TRIPOS>COMMENT
0.0000



