@<TRIPOS>MOLECULE
*****
43 46 1
SMALL
GASTEIGER

@<TRIPOS>DICT

@<TRIPOS>ATOM
      1 O           2.0254   -0.7531   -0.8117 O.2       1 UNL1        0.0000
      2 C           1.6442   -0.6706    0.3566 C.2       1 UNL1        0.0000
      3 N           2.3578    0.1291    1.2376 N.am      1 UNL1        0.0000
      4 N           1.9159    0.4644    2.4786 N.2       1 UNL1        0.0000
      5 C           2.7287    1.1592    3.2131 C.2       1 UNL1        0.0000
      6 C           2.3353    1.5660    4.5859 C.ar      1 UNL1        0.0000
      7 C           0.9689    1.6108    4.9188 C.ar      1 UNL1        0.0000
      8 O          -0.0392    1.3122    4.0411 O.3       1 UNL1        0.0000
      9 C           0.5589    1.9879    6.1889 C.ar      1 UNL1        0.0000
     10 C           1.5090    2.3224    7.1477 C.ar      1 UNL1        0.0000
     11 C           2.8795    2.2847    6.8506 C.ar      1 UNL1        0.0000
     12 C           3.3237    1.9029    5.5558 C.ar      1 UNL1        0.0000
     13 C           4.7261    1.8673    5.3403 C.ar      1 UNL1        0.0000
     14 C           5.6367    2.2049    6.3455 C.ar      1 UNL1        0.0000
     15 C           5.1776    2.5826    7.5985 C.ar      1 UNL1        0.0000
     16 C           3.8083    2.6199    7.8485 C.ar      1 UNL1        0.0000
     17 C           0.4738   -1.3736    0.8233 C.2       1 UNL1        0.0000
     18 N          -0.4217   -1.9423   -0.0425 N.pl3     1 UNL1        0.0000
     19 H          -0.3668   -1.9468   -1.0564 H         1 UNL1        0.0000
     20 N          -1.4806   -2.5200    0.5523 N.2       1 UNL1        0.0000
     21 C          -1.2445   -2.3521    1.8601 C.2       1 UNL1        0.0000
     22 C          -2.1914   -2.8175    2.9256 C.2       1 UNL1        0.0000
     23 S          -1.9416   -2.5803    4.5997 S.3       1 UNL1        0.0000
     24 C          -3.4221   -3.3352    5.0037 C.2       1 UNL1        0.0000
     25 C          -3.8389   -3.4360    6.4303 C.3       1 UNL1        0.0000
     26 C          -4.0914   -3.7701    3.8783 C.2       1 UNL1        0.0000
     27 C          -3.3796   -3.4716    2.6778 C.2       1 UNL1        0.0000
     28 C          -0.0198   -1.6823    2.0755 C.2       1 UNL1        0.0000
     29 H           3.1814    0.5775    0.8506 H         1 UNL1        0.0000
     30 H           3.7230    1.4515    2.8394 H         1 UNL1        0.0000
     31 H           0.3656    0.9530    3.2228 H         1 UNL1        0.0000
     32 H          -0.5002    2.0183    6.4315 H         1 UNL1        0.0000
     33 H           1.1647    2.6105    8.1393 H         1 UNL1        0.0000
     34 H           5.1449    1.5631    4.3854 H         1 UNL1        0.0000
     35 H           6.7052    2.1663    6.1475 H         1 UNL1        0.0000
     36 H           5.8817    2.8425    8.3847 H         1 UNL1        0.0000
     37 H           3.4691    2.9112    8.8412 H         1 UNL1        0.0000
     38 H          -2.9931   -3.6885    7.0786 H         1 UNL1        0.0000
     39 H          -4.5992   -4.2130    6.5597 H         1 UNL1        0.0000
     40 H          -4.2637   -2.4853    6.7693 H         1 UNL1        0.0000
     41 H          -5.0508   -4.2721    3.9079 H         1 UNL1        0.0000
     42 H          -3.7263   -3.7159    1.6805 H         1 UNL1        0.0000
     43 H           0.4279   -1.4432    3.0288 H         1 UNL1        0.0000
@<TRIPOS>BOND
     1    1    2 2
     2    2    3 1
     3    2   17 1
     4    3    4 1
     5    3   29 1
     6    4    5 2
     7    5    6 1
     8    5   30 1
     9    6    7 ar
    10    6   12 ar
    11    7    8 1
    12    7    9 ar
    13    8   31 1
    14    9   32 1
    15    9   10 ar
    16   10   33 1
    17   10   11 ar
    18   11   12 ar
    19   11   16 ar
    20   12   13 ar
    21   13   14 ar
    22   13   34 1
    23   14   35 1
    24   14   15 ar
    25   15   16 ar
    26   15   36 1
    27   16   37 1
    28   17   28 2
    29   17   18 1
    30   18   19 1
    31   18   20 1
    32   20   21 2
    33   21   28 1
    34   21   22 1
    35   22   23 1
    36   22   27 2
    37   23   24 1
    38   24   25 1
    39   24   26 2
    40   25   38 1
    41   25   39 1
    42   25   40 1
    43   26   27 1
    44   26   41 1
    45   27   42 1
    46   28   43 1
@<TRIPOS>SUBSTRUCTURE
1 UNL1 1
@<TRIPOS>COMMENT
0.0000



