@<TRIPOS>MOLECULE
*****
58 62 1
SMALL
GASTEIGER

@<TRIPOS>DICT

@<TRIPOS>ATOM
      1 CL          0.3532    2.2204   -2.7135 Cl        1 UNL1        0.0000
      2 C           1.9207    1.5656   -2.4424 C.ar      1 UNL1        0.0000
      3 C           3.0073    2.0490   -3.1657 C.ar      1 UNL1        0.0000
      4 C           4.2803    1.5167   -2.9466 C.ar      1 UNL1        0.0000
      5 C           4.4771    0.4921   -2.0061 C.ar      1 UNL1        0.0000
      6 C           5.8508   -0.1056   -1.7520 C.3       1 UNL1        0.0000
      7 C           6.8343    0.9289   -1.2354 C.3       1 UNL1        0.0000
      8 C           8.1296    0.2368   -0.9013 C.2       1 UNL1        0.0000
      9 O           8.7380    0.5423    0.1220 O.2       1 UNL1        0.0000
     10 C           8.6757   -0.7737   -1.8743 C.2       1 UNL1        0.0000
     11 C          10.1066   -1.1519   -1.6042 C.3       1 UNL1        0.0000
     12 C          10.3200   -2.3613   -0.6885 C.ar      1 UNL1        0.0000
     13 C          11.1858   -2.2814    0.4254 C.ar      1 UNL1        0.0000
     14 O          11.8452   -1.0922    0.5952 O.3       1 UNL1        0.0000
     15 C          12.8774   -1.0297    1.5757 C.3       1 UNL1        0.0000
     16 C          13.5923    0.2986    1.4056 C.3       1 UNL1        0.0000
     17 C          11.3321   -3.3812    1.2812 C.ar      1 UNL1        0.0000
     18 C          10.6688   -4.5796    1.0174 C.ar      1 UNL1        0.0000
     19 C           9.8520   -4.6876   -0.1003 C.ar      1 UNL1        0.0000
     20 C           9.6751   -3.5880   -0.9404 C.ar      1 UNL1        0.0000
     21 N          10.9483   -1.2091   -2.8050 N.4       1 UNL1        1.0000
     22 C          10.7483   -2.1138   -3.8476 C.ar      1 UNL1        0.0000
     23 C           9.5003   -2.5153   -4.3557 C.ar      1 UNL1        0.0000
     24 N           8.2378   -2.1227   -3.8599 N.pl3     1 UNL1        0.0000
     25 C           7.8881   -1.2156   -2.8779 C.2       1 UNL1        0.0000
     26 C           6.4297   -0.7758   -3.0023 C.3       1 UNL1        0.0000
     27 C           9.4733   -3.4304   -5.4369 C.ar      1 UNL1        0.0000
     28 C          10.6358   -3.8740   -6.0643 C.ar      1 UNL1        0.0000
     29 C          11.8611   -3.4128   -5.6193 C.ar      1 UNL1        0.0000
     30 C          11.9100   -2.5399   -4.5326 C.ar      1 UNL1        0.0000
     31 C           3.3694    0.0211   -1.2837 C.ar      1 UNL1        0.0000
     32 C           2.0967    0.5556   -1.5008 C.ar      1 UNL1        0.0000
     33 H           2.8725    2.8396   -3.8991 H         1 UNL1        0.0000
     34 H           5.1152    1.9144   -3.5201 H         1 UNL1        0.0000
     35 H           5.7495   -0.8860   -0.9828 H         1 UNL1        0.0000
     36 H           6.4451    1.4015   -0.3254 H         1 UNL1        0.0000
     37 H           7.0431    1.7228   -1.9617 H         1 UNL1        0.0000
     38 H          10.5347   -0.2829   -1.0921 H         1 UNL1        0.0000
     39 H          13.6004   -1.8401    1.4278 H         1 UNL1        0.0000
     40 H          12.4465   -1.0856    2.5817 H         1 UNL1        0.0000
     41 H          13.9862    0.3947    0.3880 H         1 UNL1        0.0000
     42 H          14.4191    0.3912    2.1150 H         1 UNL1        0.0000
     43 H          12.8991    1.1325    1.5579 H         1 UNL1        0.0000
     44 H          11.9567   -3.3355    2.1670 H         1 UNL1        0.0000
     45 H          10.7964   -5.4295    1.6826 H         1 UNL1        0.0000
     46 H           9.3478   -5.6248   -0.3207 H         1 UNL1        0.0000
     47 H           9.0284   -3.7037   -1.8053 H         1 UNL1        0.0000
     48 H          11.9175   -1.2185   -2.4981 H         1 UNL1        0.0000
     49 H           7.4956   -2.3180   -4.5260 H         1 UNL1        0.0000
     50 H           5.8035   -1.6489   -3.2353 H         1 UNL1        0.0000
     51 H           6.3643   -0.1097   -3.8727 H         1 UNL1        0.0000
     52 H           8.5212   -3.7947   -5.8167 H         1 UNL1        0.0000
     53 H          10.5780   -4.5611   -6.9034 H         1 UNL1        0.0000
     54 H          12.7789   -3.7259   -6.1087 H         1 UNL1        0.0000
     55 H          12.8873   -2.1897   -4.2062 H         1 UNL1        0.0000
     56 H           3.4868   -0.7658   -0.5407 H         1 UNL1        0.0000
     57 H           1.2503    0.1804   -0.9317 H         1 UNL1        0.0000
     58 H          10.7538   -0.2540   -3.2701 H         1 UNL1        0.0000
@<TRIPOS>BOND
     1    1    2 1
     2    2   32 ar
     3    2    3 ar
     4    3   33 1
     5    3    4 ar
     6    4   34 1
     7    4    5 ar
     8    5    6 1
     9    5   31 ar
    10    6    7 1
    11    6   26 1
    12    6   35 1
    13    7   36 1
    14    7   37 1
    15    7    8 1
    16    8    9 2
    17    8   10 1
    18   10   11 1
    19   10   25 2
    20   11   12 1
    21   11   21 1
    22   11   38 1
    23   12   13 ar
    24   12   20 ar
    25   13   14 1
    26   13   17 ar
    27   14   15 1
    28   15   16 1
    29   15   39 1
    30   15   40 1
    31   16   42 1
    32   16   43 1
    33   16   41 1
    34   17   18 ar
    35   17   44 1
    36   18   45 1
    37   18   19 ar
    38   19   20 ar
    39   19   46 1
    40   20   47 1
    41   21   22 1
    42   21   48 1
    43   22   23 ar
    44   22   30 ar
    45   23   24 1
    46   23   27 ar
    47   24   25 1
    48   24   49 1
    49   25   26 1
    50   26   50 1
    51   26   51 1
    52   27   28 ar
    53   27   52 1
    54   28   29 ar
    55   28   53 1
    56   29   54 1
    57   29   30 ar
    58   30   55 1
    59   31   32 ar
    60   31   56 1
    61   32   57 1
    62   21   58 1
@<TRIPOS>SUBSTRUCTURE
1 UNL1 1
@<TRIPOS>COMMENT
0.0000



