@<TRIPOS>MOLECULE
*****
59 62 1
SMALL
GASTEIGER

@<TRIPOS>DICT

@<TRIPOS>ATOM
      1 S           1.5057   -0.8312    0.9630 S.o2      1 UNL1        0.0000
      2 O           0.9611   -1.3459   -0.2787 O.2       1 UNL1        0.0000
      3 O           1.5112   -1.6508    2.1511 O.2       1 UNL1        0.0000
      4 N           0.7462    0.6903    1.2526 N.am      1 UNL1        0.0000
      5 C           0.8569    1.6141    0.0912 C.3       1 UNL1        0.0000
      6 C           0.8639    1.3517    2.6074 C.3       1 UNL1        0.0000
      7 C           0.1641    2.7333    2.6568 C.3       1 UNL1        0.0000
      8 C          -1.3617    2.6463    2.5464 C.3       1 UNL1        0.0000
      9 C          -1.9619    1.7075    3.5869 C.3       1 UNL1        0.0000
     10 C          -1.2676    0.3505    3.5912 C.3       1 UNL1        0.0000
     11 C           0.2439    0.5124    3.7418 C.3       1 UNL1        0.0000
     12 C           3.2092   -0.4020    0.6324 C.ar      1 UNL1        0.0000
     13 C           4.0406    0.0107    1.6725 C.ar      1 UNL1        0.0000
     14 C           5.3710    0.3412    1.3980 C.ar      1 UNL1        0.0000
     15 C           5.8923    0.2304    0.0961 C.ar      1 UNL1        0.0000
     16 C           7.3314    0.6012   -0.1134 C.2       1 UNL1        0.0000
     17 O           8.0352    0.7321    0.8818 O.2       1 UNL1        0.0000
     18 N           7.7291    0.7836   -1.4202 N.am      1 UNL1        0.0000
     19 C           9.0155    1.1188   -1.7507 C.2       1 UNL1        0.0000
     20 S           9.2840    1.2410   -3.4313 S.3       1 UNL1        0.0000
     21 C          10.9414    1.6132   -3.1284 C.ar      1 UNL1        0.0000
     22 C          11.1500    1.6359   -1.7489 C.ar      1 UNL1        0.0000
     23 N          10.0403    1.3485   -0.9773 N.2       1 UNL1        0.0000
     24 C          12.4371    1.9353   -1.2693 C.ar      1 UNL1        0.0000
     25 C          13.4803    2.1882   -2.1718 C.ar      1 UNL1        0.0000
     26 C          13.2655    2.1491   -3.5483 C.ar      1 UNL1        0.0000
     27 N          14.2798    2.3698   -4.5056 N.am      1 UNL1        0.0000
     28 C          15.6110    2.6662   -4.2700 C.2       1 UNL1        0.0000
     29 O          16.1463    2.8427   -3.1818 O.2       1 UNL1        0.0000
     30 C          16.4051    2.8004   -5.5459 C.3       1 UNL1        0.0000
     31 C          11.9814    1.8652   -4.0427 C.ar      1 UNL1        0.0000
     32 C           5.0594   -0.2442   -0.9277 C.ar      1 UNL1        0.0000
     33 C           3.7197   -0.5513   -0.6620 C.ar      1 UNL1        0.0000
     34 H           0.9380    1.0778   -0.8583 H         1 UNL1        0.0000
     35 H           1.7349    2.2594    0.1947 H         1 UNL1        0.0000
     36 H          -0.0406    2.2299    0.0022 H         1 UNL1        0.0000
     37 H           1.9251    1.5181    2.8157 H         1 UNL1        0.0000
     38 H           0.5532    3.4130    1.8918 H         1 UNL1        0.0000
     39 H           0.4100    3.2093    3.6164 H         1 UNL1        0.0000
     40 H          -1.6508    2.3012    1.5481 H         1 UNL1        0.0000
     41 H          -1.7928    3.6468    2.6679 H         1 UNL1        0.0000
     42 H          -3.0331    1.5771    3.3955 H         1 UNL1        0.0000
     43 H          -1.8706    2.1637    4.5804 H         1 UNL1        0.0000
     44 H          -1.4991   -0.1911    2.6664 H         1 UNL1        0.0000
     45 H          -1.6571   -0.2533    4.4188 H         1 UNL1        0.0000
     46 H           0.7071   -0.4664    3.8512 H         1 UNL1        0.0000
     47 H           0.4440    1.0174    4.6973 H         1 UNL1        0.0000
     48 H           3.6749    0.0658    2.6945 H         1 UNL1        0.0000
     49 H           6.0117    0.6759    2.2142 H         1 UNL1        0.0000
     50 H           7.0936    0.7008   -2.1943 H         1 UNL1        0.0000
     51 H          12.6166    1.9620   -0.1985 H         1 UNL1        0.0000
     52 H          14.4570    2.4074   -1.7503 H         1 UNL1        0.0000
     53 H          13.9979    2.2996   -5.4751 H         1 UNL1        0.0000
     54 H          16.0222    2.1329   -6.3232 H         1 UNL1        0.0000
     55 H          17.4470    2.5287   -5.3524 H         1 UNL1        0.0000
     56 H          16.3563    3.8352   -5.8944 H         1 UNL1        0.0000
     57 H          11.7800    1.8307   -5.1085 H         1 UNL1        0.0000
     58 H           5.4225   -0.4182   -1.9350 H         1 UNL1        0.0000
     59 H           3.0891   -0.9286   -1.4658 H         1 UNL1        0.0000
@<TRIPOS>BOND
     1    1    2 2
     2    1   12 1
     3    1    3 2
     4    1    4 1
     5    4    5 1
     6    4    6 1
     7    5   34 1
     8    5   35 1
     9    5   36 1
    10    6   11 1
    11    6    7 1
    12    6   37 1
    13    7   38 1
    14    7   39 1
    15    7    8 1
    16    8    9 1
    17    8   40 1
    18    8   41 1
    19    9   42 1
    20    9   43 1
    21    9   10 1
    22   10   11 1
    23   10   44 1
    24   10   45 1
    25   11   46 1
    26   11   47 1
    27   12   33 ar
    28   12   13 ar
    29   13   48 1
    30   13   14 ar
    31   14   49 1
    32   14   15 ar
    33   15   16 1
    34   15   32 ar
    35   16   17 2
    36   16   18 am
    37   18   50 1
    38   18   19 1
    39   19   20 1
    40   19   23 2
    41   20   21 1
    42   21   22 ar
    43   21   31 ar
    44   22   23 1
    45   22   24 ar
    46   24   25 ar
    47   24   51 1
    48   25   26 ar
    49   25   52 1
    50   26   27 1
    51   26   31 ar
    52   27   53 1
    53   27   28 am
    54   28   30 1
    55   28   29 2
    56   30   54 1
    57   30   55 1
    58   30   56 1
    59   31   57 1
    60   32   33 ar
    61   32   58 1
    62   33   59 1
@<TRIPOS>SUBSTRUCTURE
1 UNL1 1
@<TRIPOS>COMMENT
0.0000



