@<TRIPOS>MOLECULE
*****
50 53 1
SMALL
GASTEIGER

@<TRIPOS>DICT

@<TRIPOS>ATOM
      1 CL          5.0616    3.1145    6.6541 Cl        1 UNL1        0.0000
      2 C           6.2697    2.4299    5.6381 C.ar      1 UNL1        0.0000
      3 C           5.9471    1.3657    4.7991 C.ar      1 UNL1        0.0000
      4 C           6.9289    0.8064    3.9777 C.ar      1 UNL1        0.0000
      5 C           8.2406    1.3050    3.9963 C.ar      1 UNL1        0.0000
      6 C           9.3056    0.6952    3.1182 C.3       1 UNL1        0.0000
      7 S           9.4047    1.5236    1.5043 S.3       1 UNL1        0.0000
      8 C          10.6880    0.6059    0.7828 C.2       1 UNL1        0.0000
      9 N          11.3458   -0.3009    1.4208 N.2       1 UNL1        0.0000
     10 C          12.3197   -0.9471    0.7203 C.2       1 UNL1        0.0000
     11 N          12.9749   -1.9213    1.4054 N.am      1 UNL1        0.0000
     12 C          14.0461   -2.6403    0.9517 C.2       1 UNL1        0.0000
     13 O          14.5667   -3.5085    1.6483 O.2       1 UNL1        0.0000
     14 C          14.6450   -2.2037   -0.3697 C.3       1 UNL1        0.0000
     15 C          13.6453   -1.5188   -1.3044 C.3       1 UNL1        0.0000
     16 C          12.8607   -2.5694   -2.0949 C.2       1 UNL1        0.0000
     17 O          12.5425   -3.6350   -1.5749 O.2       1 UNL1        0.0000
     18 N          12.5427   -2.1627   -3.3797 N.am      1 UNL1        0.0000
     19 C          11.8157   -2.8917   -4.3442 C.ar      1 UNL1        0.0000
     20 C          11.1239   -4.0711   -4.0678 C.ar      1 UNL1        0.0000
     21 C          10.4397   -4.7495   -5.0818 C.ar      1 UNL1        0.0000
     22 C          10.4538   -4.2708   -6.3947 C.ar      1 UNL1        0.0000
     23 C           9.7190   -5.0099   -7.4726 C.3       1 UNL1        0.0000
     24 C          11.1226   -3.0745   -6.6685 C.ar      1 UNL1        0.0000
     25 C          11.7923   -2.3878   -5.6496 C.ar      1 UNL1        0.0000
     26 C          12.6323   -0.7124   -0.5585 C.2       1 UNL1        0.0000
     27 C          11.8856    0.3493   -1.2526 C.2       1 UNL1        0.0000
     28 O          12.1354    0.6500   -2.4157 O.2       1 UNL1        0.0000
     29 N          10.9187    0.9545   -0.5110 N.am      1 UNL1        0.0000
     30 C           8.5466    2.3848    4.8392 C.ar      1 UNL1        0.0000
     31 C           7.5643    2.9435    5.6599 C.ar      1 UNL1        0.0000
     32 H           4.9364    0.9668    4.7800 H         1 UNL1        0.0000
     33 H           6.6645   -0.0237    3.3254 H         1 UNL1        0.0000
     34 H           9.0912   -0.3702    2.9732 H         1 UNL1        0.0000
     35 H          10.2732    0.7622    3.6292 H         1 UNL1        0.0000
     36 H          12.6367   -2.1521    2.3307 H         1 UNL1        0.0000
     37 H          15.0968   -3.0777   -0.8530 H         1 UNL1        0.0000
     38 H          15.4534   -1.5027   -0.1256 H         1 UNL1        0.0000
     39 H          14.2181   -0.8927   -1.9995 H         1 UNL1        0.0000
     40 H          12.8652   -1.2440   -3.6716 H         1 UNL1        0.0000
     41 H          11.0787   -4.4873   -3.0665 H         1 UNL1        0.0000
     42 H           9.9002   -5.6612   -4.8337 H         1 UNL1        0.0000
     43 H           9.8410   -6.0913   -7.3479 H         1 UNL1        0.0000
     44 H          10.1068   -4.7521   -8.4636 H         1 UNL1        0.0000
     45 H           8.6532   -4.7648   -7.4374 H         1 UNL1        0.0000
     46 H          11.1361   -2.6719   -7.6788 H         1 UNL1        0.0000
     47 H          12.3142   -1.4680   -5.9007 H         1 UNL1        0.0000
     48 H          10.3656    1.6832   -0.9364 H         1 UNL1        0.0000
     49 H           9.5542    2.7951    4.8634 H         1 UNL1        0.0000
     50 H           7.8156    3.7756    6.3120 H         1 UNL1        0.0000
@<TRIPOS>BOND
     1    1    2 1
     2    2    3 ar
     3    2   31 ar
     4    3   32 1
     5    3    4 ar
     6    4   33 1
     7    4    5 ar
     8    5    6 1
     9    5   30 ar
    10    6   34 1
    11    6   35 1
    12    6    7 1
    13    7    8 1
    14    8    9 2
    15    8   29 1
    16    9   10 1
    17   10   11 1
    18   10   26 2
    19   11   12 am
    20   11   36 1
    21   12   13 2
    22   12   14 1
    23   14   37 1
    24   14   38 1
    25   14   15 1
    26   15   26 1
    27   15   16 1
    28   15   39 1
    29   16   18 am
    30   16   17 2
    31   18   40 1
    32   18   19 1
    33   19   25 ar
    34   19   20 ar
    35   20   21 ar
    36   20   41 1
    37   21   42 1
    38   21   22 ar
    39   22   23 1
    40   22   24 ar
    41   23   43 1
    42   23   44 1
    43   23   45 1
    44   24   25 ar
    45   24   46 1
    46   25   47 1
    47   26   27 1
    48   27   29 am
    49   27   28 2
    50   29   48 1
    51   30   31 ar
    52   30   49 1
    53   31   50 1
@<TRIPOS>SUBSTRUCTURE
1 UNL1 1
@<TRIPOS>COMMENT
0.0000



