@<TRIPOS>MOLECULE
*****
44 47 1
SMALL
GASTEIGER

@<TRIPOS>DICT

@<TRIPOS>ATOM
      1 BR          2.8641   -0.8530    5.1679 Br        1 UNL1        0.0000
      2 C           4.4405   -0.6148    4.1485 C.ar      1 UNL1        0.0000
      3 C           5.3206   -1.6858    3.9979 C.ar      1 UNL1        0.0000
      4 C           6.4632   -1.4626    3.2201 C.ar      1 UNL1        0.0000
      5 N           7.4765   -2.3013    2.8632 N.pl3     1 UNL1        0.0000
      6 H           7.5952   -3.2744    3.1198 H         1 UNL1        0.0000
      7 N           8.3781   -1.7559    2.0427 N.2       1 UNL1        0.0000
      8 C           8.0037   -0.4723    1.9252 C.2       1 UNL1        0.0000
      9 N           8.7794    0.3822    1.1491 N.am      1 UNL1        0.0000
     10 C           8.7799    1.7728    1.2211 C.2       1 UNL1        0.0000
     11 O           8.1600    2.5095    1.9665 O.2       1 UNL1        0.0000
     12 C           9.8285    2.2823    0.2531 C.3       1 UNL1        0.0000
     13 C          10.1109    1.0782   -0.6448 C.3       1 UNL1        0.0000
     14 C           9.2005    1.0608   -1.8705 C.2       1 UNL1        0.0000
     15 O           8.3157    1.9076   -2.0265 O.2       1 UNL1        0.0000
     16 N           9.3181    0.1096   -2.8366 N.am      1 UNL1        0.0000
     17 C          10.2350   -0.8959   -2.8925 C.2       1 UNL1        0.0000
     18 S           9.9875   -2.0233   -4.1448 S.3       1 UNL1        0.0000
     19 C          11.3009   -2.9244   -3.4809 C.2       1 UNL1        0.0000
     20 C          11.7258   -4.2626   -4.0232 C.3       1 UNL1        0.0000
     21 C          10.5980   -5.2931   -3.9593 C.3       1 UNL1        0.0000
     22 C          12.2947   -4.1525   -5.4361 C.3       1 UNL1        0.0000
     23 N          11.8776   -2.3311   -2.4535 N.2       1 UNL1        0.0000
     24 N          11.2580   -1.1455   -2.1161 N.2       1 UNL1        0.0000
     25 C           9.8344   -0.0892    0.2839 C.3       1 UNL1        0.0000
     26 C           6.7702   -0.2413    2.6201 C.ar      1 UNL1        0.0000
     27 C           5.8491    0.8141    2.7832 C.ar      1 UNL1        0.0000
     28 C           4.6923    0.6159    3.5509 C.ar      1 UNL1        0.0000
     29 H           5.1245   -2.6520    4.4494 H         1 UNL1        0.0000
     30 H          10.7178    2.5506    0.8342 H         1 UNL1        0.0000
     31 H           9.4617    3.1626   -0.2809 H         1 UNL1        0.0000
     32 H          11.1470    1.1102   -0.9964 H         1 UNL1        0.0000
     33 H           8.6288    0.1537   -3.5742 H         1 UNL1        0.0000
     34 H          12.5328   -4.6285   -3.3749 H         1 UNL1        0.0000
     35 H           9.7755   -5.0428   -4.6373 H         1 UNL1        0.0000
     36 H          10.1875   -5.3617   -2.9462 H         1 UNL1        0.0000
     37 H          10.9660   -6.2855   -4.2399 H         1 UNL1        0.0000
     38 H          11.5366   -3.8327   -6.1582 H         1 UNL1        0.0000
     39 H          12.6846   -5.1194   -5.7711 H         1 UNL1        0.0000
     40 H          13.1161   -3.4294   -5.4701 H         1 UNL1        0.0000
     41 H          10.7118   -0.3128    0.9013 H         1 UNL1        0.0000
     42 H           9.5093   -0.9973   -0.2286 H         1 UNL1        0.0000
     43 H           6.0064    1.7787    2.3092 H         1 UNL1        0.0000
     44 H           3.9931    1.4387    3.6640 H         1 UNL1        0.0000
@<TRIPOS>BOND
     1    1    2 1
     2    2    3 ar
     3    2   28 ar
     4    3   29 1
     5    3    4 ar
     6    4    5 1
     7    4   26 ar
     8    5    6 1
     9    5    7 1
    10    7    8 2
    11    8   26 1
    12    8    9 1
    13    9   25 1
    14    9   10 am
    15   10   12 1
    16   10   11 2
    17   12   13 1
    18   12   31 1
    19   12   30 1
    20   13   14 1
    21   13   25 1
    22   13   32 1
    23   14   16 am
    24   14   15 2
    25   16   17 1
    26   16   33 1
    27   17   18 1
    28   17   24 2
    29   18   19 1
    30   19   23 2
    31   19   20 1
    32   20   21 1
    33   20   22 1
    34   20   34 1
    35   21   37 1
    36   21   35 1
    37   21   36 1
    38   22   38 1
    39   22   39 1
    40   22   40 1
    41   23   24 1
    42   25   42 1
    43   25   41 1
    44   26   27 ar
    45   27   28 ar
    46   27   43 1
    47   28   44 1
@<TRIPOS>SUBSTRUCTURE
1 UNL1 1
@<TRIPOS>COMMENT
0.0000



