@<TRIPOS>MOLECULE
*****
39 42 1
SMALL
GASTEIGER

@<TRIPOS>DICT

@<TRIPOS>ATOM
      1 CL          3.3950    1.9086   -0.1761 Cl        1 UNL1        0.0000
      2 C           2.2464    1.2825   -1.3065 C.ar      1 UNL1        0.0000
      3 C           1.7905    1.9847   -2.4332 C.ar      1 UNL1        0.0000
      4 C           2.1615    3.3852   -2.8126 C.2       1 UNL1        0.0000
      5 O           2.0485    3.6979   -3.9939 O.2       1 UNL1        0.0000
      6 N           2.5692    4.2307   -1.7992 N.am      1 UNL1        0.0000
      7 C           2.8003    5.6208   -1.8859 C.ar      1 UNL1        0.0000
      8 C           2.4633    6.3954   -3.0009 C.ar      1 UNL1        0.0000
      9 C           2.6672    7.7878   -3.0153 C.ar      1 UNL1        0.0000
     10 C           2.2691    8.5942   -4.1658 C.2       1 UNL1        0.0000
     11 O           1.6869    7.9394   -5.2198 O.3       1 UNL1        0.0000
     12 C           1.3966    8.9316   -6.1062 C.ar      1 UNL1        0.0000
     13 C           1.8147   10.1306   -5.5531 C.ar      1 UNL1        0.0000
     14 N           2.3735    9.9066   -4.3173 N.2       1 UNL1        0.0000
     15 C           1.6178   11.3133   -6.2772 C.ar      1 UNL1        0.0000
     16 C           1.0014   11.2231   -7.5357 C.ar      1 UNL1        0.0000
     17 C           0.5948    9.9880   -8.0580 C.ar      1 UNL1        0.0000
     18 C           0.7861    8.7978   -7.3466 C.ar      1 UNL1        0.0000
     19 C           3.2389    8.3869   -1.8830 C.ar      1 UNL1        0.0000
     20 O           3.4806    9.7335   -1.7920 O.3       1 UNL1        0.0000
     21 C           3.5854    7.6270   -0.7689 C.ar      1 UNL1        0.0000
     22 C           3.3585    6.2497   -0.7676 C.ar      1 UNL1        0.0000
     23 C           0.8906    1.3417   -3.3088 C.ar      1 UNL1        0.0000
     24 C           0.4470    0.0459   -3.0551 C.ar      1 UNL1        0.0000
     25 CL         -0.6564   -0.7098   -4.1356 Cl        1 UNL1        0.0000
     26 C           0.8890   -0.6376   -1.9291 C.ar      1 UNL1        0.0000
     27 C           1.7893   -0.0213   -1.0588 C.ar      1 UNL1        0.0000
     28 H           2.7537    3.8134   -0.8941 H         1 UNL1        0.0000
     29 H           2.0085    5.9328   -3.8717 H         1 UNL1        0.0000
     30 H           1.9312   12.2689   -5.8722 H         1 UNL1        0.0000
     31 H           0.8364   12.1299   -8.1147 H         1 UNL1        0.0000
     32 H           0.1194    9.9514   -9.0368 H         1 UNL1        0.0000
     33 H           0.4786    7.8332   -7.7306 H         1 UNL1        0.0000
     34 H           3.1838   10.1586   -2.6254 H         1 UNL1        0.0000
     35 H           4.0251    8.1104    0.0995 H         1 UNL1        0.0000
     36 H           3.6317    5.6800    0.1169 H         1 UNL1        0.0000
     37 H           0.5283    1.8620   -4.1953 H         1 UNL1        0.0000
     38 H           0.5436   -1.6485   -1.7261 H         1 UNL1        0.0000
     39 H           2.1377   -0.5706   -0.1858 H         1 UNL1        0.0000
@<TRIPOS>BOND
     1    1    2 1
     2    2    3 ar
     3    2   27 ar
     4    3   23 ar
     5    3    4 1
     6    4    5 2
     7    4    6 am
     8    6   28 1
     9    6    7 1
    10    7    8 ar
    11    7   22 ar
    12    8    9 ar
    13    8   29 1
    14    9   10 1
    15    9   19 ar
    16   10   14 2
    17   10   11 1
    18   11   12 1
    19   12   13 ar
    20   12   18 ar
    21   13   14 1
    22   13   15 ar
    23   15   16 ar
    24   15   30 1
    25   16   31 1
    26   16   17 ar
    27   17   18 ar
    28   17   32 1
    29   18   33 1
    30   19   20 1
    31   19   21 ar
    32   20   34 1
    33   21   22 ar
    34   21   35 1
    35   22   36 1
    36   23   37 1
    37   23   24 ar
    38   24   25 1
    39   24   26 ar
    40   26   38 1
    41   26   27 ar
    42   27   39 1
@<TRIPOS>SUBSTRUCTURE
1 UNL1 1
@<TRIPOS>COMMENT
0.0000



