@<TRIPOS>MOLECULE
*****
60 64 1
SMALL
GASTEIGER

@<TRIPOS>DICT

@<TRIPOS>ATOM
      1 F           3.3328    4.0964    3.8475 F         1 UNL1        0.0000
      2 C           3.8706    3.2254    2.9843 C.ar      1 UNL1        0.0000
      3 C           3.6508    1.8667    3.1487 C.ar      1 UNL1        0.0000
      4 C           4.2175    0.9576    2.2482 C.ar      1 UNL1        0.0000
      5 C           4.9929    1.3957    1.1564 C.ar      1 UNL1        0.0000
      6 C           5.6534    0.4275    0.1503 C.3       1 UNL1        0.0000
      7 N           5.3717   -1.0007    0.4656 N.am      1 UNL1        0.0000
      8 C           6.2836   -1.7484    1.3249 C.ar      1 UNL1        0.0000
      9 C           6.0207   -3.0676    1.7297 C.ar      1 UNL1        0.0000
     10 C           6.8860   -3.7953    2.5662 C.ar      1 UNL1        0.0000
     11 C           8.0633   -3.2265    3.0245 C.ar      1 UNL1        0.0000
     12 O           8.9924   -3.8240    3.8270 O.3       1 UNL1        0.0000
     13 C           8.7067   -5.1511    4.2540 C.3       1 UNL1        0.0000
     14 C           8.3516   -1.9207    2.6479 C.ar      1 UNL1        0.0000
     15 C           7.4750   -1.1919    1.8244 C.ar      1 UNL1        0.0000
     16 C           4.1637   -1.5497   -0.0239 C.2       1 UNL1        0.0000
     17 O           3.7455   -2.6920    0.1447 O.2       1 UNL1        0.0000
     18 C           3.2545   -0.5759   -0.7476 C.3       1 UNL1        0.0000
     19 C           3.9676    0.2512   -1.7907 C.3       1 UNL1        0.0000
     20 C           5.3490    0.7376   -1.3420 C.3       1 UNL1        0.0000
     21 C           6.4421    0.0975   -2.2144 C.2       1 UNL1        0.0000
     22 O           6.3519   -1.0832   -2.5695 O.2       1 UNL1        0.0000
     23 N           7.5515    0.7729   -2.6265 N.am      1 UNL1        0.0000
     24 C           7.8607    2.0811   -2.4073 C.2       1 UNL1        0.0000
     25 S           9.2152    2.6588   -3.2656 S.3       1 UNL1        0.0000
     26 C           8.9483    4.2345   -2.6085 C.ar      1 UNL1        0.0000
     27 C           7.8488    4.1762   -1.7514 C.ar      1 UNL1        0.0000
     28 N           7.2488    2.9374   -1.6400 N.2       1 UNL1        0.0000
     29 C           7.4375    5.3464   -1.0880 C.ar      1 UNL1        0.0000
     30 C           8.1329    6.5418   -1.2850 C.ar      1 UNL1        0.0000
     31 C           9.2322    6.5870   -2.1378 C.ar      1 UNL1        0.0000
     32 O           9.9810    7.7052   -2.3943 O.3       1 UNL1        0.0000
     33 C           9.7431    8.8340   -1.5586 C.3       1 UNL1        0.0000
     34 C           9.6470    5.4346   -2.8222 C.ar      1 UNL1        0.0000
     35 C           5.2096    2.7798    1.0393 C.ar      1 UNL1        0.0000
     36 C           4.6518    3.6909    1.9400 C.ar      1 UNL1        0.0000
     37 H           3.0461    1.5171    3.9795 H         1 UNL1        0.0000
     38 H           4.0367   -0.1008    2.4254 H         1 UNL1        0.0000
     39 H           6.7257    0.6076    0.2472 H         1 UNL1        0.0000
     40 H           5.1289   -3.6024    1.4259 H         1 UNL1        0.0000
     41 H           6.5941   -4.8068    2.8292 H         1 UNL1        0.0000
     42 H           9.5451   -5.4933    4.8682 H         1 UNL1        0.0000
     43 H           8.6201   -5.8334    3.4017 H         1 UNL1        0.0000
     44 H           7.8051   -5.1779    4.8751 H         1 UNL1        0.0000
     45 H           9.2682   -1.4528    2.9999 H         1 UNL1        0.0000
     46 H           7.7885   -0.1766    1.6158 H         1 UNL1        0.0000
     47 H           2.7635    0.0619   -0.0059 H         1 UNL1        0.0000
     48 H           2.4539   -1.1440   -1.2366 H         1 UNL1        0.0000
     49 H           3.3386    1.1214   -2.0210 H         1 UNL1        0.0000
     50 H           4.0250   -0.3127   -2.7296 H         1 UNL1        0.0000
     51 H           5.3388    1.8094   -1.5342 H         1 UNL1        0.0000
     52 H           8.1689    0.2477   -3.2317 H         1 UNL1        0.0000
     53 H           6.5786    5.3213   -0.4260 H         1 UNL1        0.0000
     54 H           7.7774    7.4204   -0.7561 H         1 UNL1        0.0000
     55 H          10.4779    9.6029   -1.8137 H         1 UNL1        0.0000
     56 H           9.8797    8.5800   -0.5015 H         1 UNL1        0.0000
     57 H           8.7469    9.2525   -1.7373 H         1 UNL1        0.0000
     58 H          10.4975    5.4729   -3.4967 H         1 UNL1        0.0000
     59 H           5.8330    3.1697    0.2451 H         1 UNL1        0.0000
     60 H           4.8291    4.7562    1.8346 H         1 UNL1        0.0000
@<TRIPOS>BOND
     1    1    2 1
     2    2    3 ar
     3    2   36 ar
     4    3    4 ar
     5    3   37 1
     6    4   38 1
     7    4    5 ar
     8    5    6 1
     9    5   35 ar
    10    6    7 1
    11    6   39 1
    12    6   20 1
    13    7   16 am
    14    7    8 1
    15    8    9 ar
    16    8   15 ar
    17    9   10 ar
    18    9   40 1
    19   10   11 ar
    20   10   41 1
    21   11   14 ar
    22   11   12 1
    23   12   13 1
    24   13   43 1
    25   13   42 1
    26   13   44 1
    27   14   15 ar
    28   14   45 1
    29   15   46 1
    30   16   17 2
    31   16   18 1
    32   18   47 1
    33   18   19 1
    34   18   48 1
    35   19   49 1
    36   19   50 1
    37   19   20 1
    38   20   21 1
    39   20   51 1
    40   21   22 2
    41   21   23 am
    42   23   52 1
    43   23   24 1
    44   24   25 1
    45   24   28 2
    46   25   26 1
    47   26   27 ar
    48   26   34 ar
    49   27   28 1
    50   27   29 ar
    51   29   30 ar
    52   29   53 1
    53   30   31 ar
    54   30   54 1
    55   31   34 ar
    56   31   32 1
    57   32   33 1
    58   33   55 1
    59   33   57 1
    60   33   56 1
    61   34   58 1
    62   35   36 ar
    63   35   59 1
    64   36   60 1
@<TRIPOS>SUBSTRUCTURE
1 UNL1 1
@<TRIPOS>COMMENT
0.0000



