@<TRIPOS>MOLECULE
*****
42 44 1
SMALL
GASTEIGER

@<TRIPOS>DICT

@<TRIPOS>ATOM
      1 S           0.9558   -2.3856    1.7931 S.3       1 UNL1        0.0000
      2 C           0.3828   -1.3654    0.4031 C.3       1 UNL1        0.0000
      3 C          -1.1337   -1.3793    0.3446 C.2       1 UNL1        0.0000
      4 O          -1.7890   -0.4011    0.7204 O.2       1 UNL1        0.0000
      5 N          -1.8221   -2.4588   -0.1259 N.am      1 UNL1        0.0000
      6 C          -1.2894   -3.6190   -0.6038 C.2       1 UNL1        0.0000
      7 S          -2.4294   -4.8149   -1.0197 S.3       1 UNL1        0.0000
      8 C          -1.0946   -5.8169   -1.4513 C.2       1 UNL1        0.0000
      9 C          -1.3077   -7.2051   -1.9670 C.3       1 UNL1        0.0000
     10 C          -0.9890   -7.3502   -3.4663 C.3       1 UNL1        0.0000
     11 C          -1.1517   -8.8143   -3.8851 C.3       1 UNL1        0.0000
     12 C          -1.8786   -6.4667   -4.3454 C.3       1 UNL1        0.0000
     13 N           0.0806   -5.2486   -1.2650 N.2       1 UNL1        0.0000
     14 N          -0.0381   -3.9613   -0.7871 N.2       1 UNL1        0.0000
     15 C           2.5655   -2.6645    1.2199 C.2       1 UNL1        0.0000
     16 N           3.5227   -1.8578    1.5238 N.2       1 UNL1        0.0000
     17 C           4.8008   -2.1695    1.0318 C.ar      1 UNL1        0.0000
     18 C           5.0489   -3.3023    0.2495 C.ar      1 UNL1        0.0000
     19 C           3.9026   -4.1753   -0.0689 C.2       1 UNL1        0.0000
     20 O           4.0324   -5.1815   -0.7564 O.2       1 UNL1        0.0000
     21 N           2.6988   -3.7805    0.4521 N.am      1 UNL1        0.0000
     22 C           6.3333   -3.5925   -0.2213 C.ar      1 UNL1        0.0000
     23 C           7.3874   -2.7353    0.0931 C.ar      1 UNL1        0.0000
     24 C           7.1538   -1.5999    0.8706 C.ar      1 UNL1        0.0000
     25 C           5.8661   -1.3204    1.3373 C.ar      1 UNL1        0.0000
     26 H           0.8005   -1.6768   -0.5584 H         1 UNL1        0.0000
     27 H           0.7131   -0.3344    0.5702 H         1 UNL1        0.0000
     28 H          -2.8287   -2.3855   -0.0850 H         1 UNL1        0.0000
     29 H          -2.3346   -7.5378   -1.7690 H         1 UNL1        0.0000
     30 H          -0.6542   -7.8764   -1.3943 H         1 UNL1        0.0000
     31 H           0.0554   -7.0609   -3.6414 H         1 UNL1        0.0000
     32 H          -2.1827   -9.1556   -3.7395 H         1 UNL1        0.0000
     33 H          -0.4938   -9.4639   -3.2984 H         1 UNL1        0.0000
     34 H          -0.8980   -8.9488   -4.9419 H         1 UNL1        0.0000
     35 H          -2.9403   -6.6636   -4.1622 H         1 UNL1        0.0000
     36 H          -1.6793   -6.6494   -5.4069 H         1 UNL1        0.0000
     37 H          -1.6904   -5.4043   -4.1609 H         1 UNL1        0.0000
     38 H           1.8799   -4.3291    0.2113 H         1 UNL1        0.0000
     39 H           6.5096   -4.4777   -0.8278 H         1 UNL1        0.0000
     40 H           8.3904   -2.9512   -0.2673 H         1 UNL1        0.0000
     41 H           7.9744   -0.9300    1.1166 H         1 UNL1        0.0000
     42 H           5.6885   -0.4365    1.9450 H         1 UNL1        0.0000
@<TRIPOS>BOND
     1    1   15 1
     2    1    2 1
     3    2   26 1
     4    2   27 1
     5    2    3 1
     6    3    4 2
     7    3    5 am
     8    5    6 1
     9    5   28 1
    10    6   14 2
    11    6    7 1
    12    7    8 1
    13    8   13 2
    14    8    9 1
    15    9   29 1
    16    9   30 1
    17    9   10 1
    18   10   11 1
    19   10   12 1
    20   10   31 1
    21   11   32 1
    22   11   33 1
    23   11   34 1
    24   12   35 1
    25   12   36 1
    26   12   37 1
    27   13   14 1
    28   15   21 1
    29   15   16 2
    30   16   17 1
    31   17   18 ar
    32   17   25 ar
    33   18   19 1
    34   18   22 ar
    35   19   20 2
    36   19   21 am
    37   21   38 1
    38   22   23 ar
    39   22   39 1
    40   23   40 1
    41   23   24 ar
    42   24   25 ar
    43   24   41 1
    44   25   42 1
@<TRIPOS>SUBSTRUCTURE
1 UNL1 1
@<TRIPOS>COMMENT
0.0000



