@<TRIPOS>MOLECULE
*****
99 103 1
SMALL
GASTEIGER

@<TRIPOS>DICT

@<TRIPOS>ATOM
      1 S           5.7956   -2.8887    4.4482 S.o2      1 UNL1        0.0000
      2 O           6.8646   -1.9120    4.3656 O.2       1 UNL1        0.0000
      3 O           5.0011   -3.0211    5.6487 O.2       1 UNL1        0.0000
      4 N           6.5134   -4.3796    4.0821 N.am      1 UNL1        0.0000
      5 C           5.7470   -5.5532    4.2995 C.ar      1 UNL1        0.0000
      6 C           5.0965   -6.1834    3.2418 C.ar      1 UNL1        0.0000
      7 C           4.3215   -7.3294    3.4801 C.ar      1 UNL1        0.0000
      8 C           3.5470   -7.9738    2.3559 C.3       1 UNL1        0.0000
      9 F           4.1826   -7.8762    1.1556 F         1 UNL1        0.0000
     10 F           3.3168   -9.3004    2.5539 F         1 UNL1        0.0000
     11 F           2.3284   -7.4000    2.1732 F         1 UNL1        0.0000
     12 C           4.2314   -7.8294    4.7898 C.ar      1 UNL1        0.0000
     13 C           4.8512   -7.1705    5.8508 C.ar      1 UNL1        0.0000
     14 C           5.6025   -6.0269    5.6037 C.ar      1 UNL1        0.0000
     15 C           4.7087   -2.6174    3.0563 C.ar      1 UNL1        0.0000
     16 C           3.3545   -2.9882    3.0423 C.ar      1 UNL1        0.0000
     17 N           2.7139   -3.6688    4.0846 N.4       1 UNL1        1.0000
     18 C           1.5922   -4.5699    3.7815 C.3       1 UNL1        0.0000
     19 C           1.2203   -5.4733    4.9745 C.3       1 UNL1        0.0000
     20 C           0.4398   -6.7155    4.5810 C.ar      1 UNL1        0.0000
     21 C          -0.6431   -6.6604    3.6986 C.ar      1 UNL1        0.0000
     22 C          -1.3055   -7.8324    3.3091 C.ar      1 UNL1        0.0000
     23 O          -2.3533   -7.6784    2.4344 O.3       1 UNL1        0.0000
     24 C          -3.5949   -7.8579    3.1178 C.3       1 UNL1        0.0000
     25 C          -0.8776   -9.0937    3.7463 C.ar      1 UNL1        0.0000
     26 O          -1.5368  -10.1839    3.2437 O.3       1 UNL1        0.0000
     27 C          -0.9417  -11.4592    3.4550 C.3       1 UNL1        0.0000
     28 C           0.1647   -9.1472    4.6709 C.ar      1 UNL1        0.0000
     29 C           0.7911   -7.9682    5.1049 C.ar      1 UNL1        0.0000
     30 C           2.6136   -2.5570    1.9238 C.ar      1 UNL1        0.0000
     31 C           3.1744   -1.8154    0.8653 C.ar      1 UNL1        0.0000
     32 C           4.5255   -1.5011    0.8609 C.ar      1 UNL1        0.0000
     33 C           5.2578   -0.6660   -0.1427 C.2       1 UNL1        0.0000
     34 O           6.2993   -0.1433    0.2725 O.2       1 UNL1        0.0000
     35 N           4.8714   -0.4671   -1.4775 N.am      1 UNL1        0.0000
     36 C           5.7144    0.5095   -2.1763 C.3       1 UNL1        0.0000
     37 C           5.4791    0.6054   -3.6801 C.3       1 UNL1        0.0000
     38 N           4.0663    0.7603   -4.0904 N.4       1 UNL1        1.0000
     39 C           3.3839    1.9236   -3.4741 C.3       1 UNL1        0.0000
     40 C           3.4298    3.3416   -4.0536 C.ar      1 UNL1        0.0000
     41 C           4.5622    4.0872   -4.4398 C.ar      1 UNL1        0.0000
     42 O           5.7704    3.4756   -4.6256 O.3       1 UNL1        0.0000
     43 C           5.9194    3.0665   -5.9944 C.3       1 UNL1        0.0000
     44 C           4.4943    5.5023   -4.5506 C.ar      1 UNL1        0.0000
     45 O           5.5904    6.3373   -4.6022 O.3       1 UNL1        0.0000
     46 C           6.5668    6.0773   -5.5926 C.3       1 UNL1        0.0000
     47 C           3.2658    6.1745   -4.4012 C.ar      1 UNL1        0.0000
     48 O           3.2984    7.5392   -4.5480 O.3       1 UNL1        0.0000
     49 C           2.0910    8.2574   -4.3429 C.3       1 UNL1        0.0000
     50 C           2.1227    5.4397   -4.1167 C.ar      1 UNL1        0.0000
     51 C           2.2129    4.0586   -3.9238 C.ar      1 UNL1        0.0000
     52 C           3.4256   -0.4980   -3.6002 C.3       1 UNL1        0.0000
     53 C           3.5633   -0.7695   -2.0738 C.3       1 UNL1        0.0000
     54 C           5.2785   -1.9131    1.9737 C.ar      1 UNL1        0.0000
     55 H           7.0794   -4.3390    3.2356 H         1 UNL1        0.0000
     56 H           5.1719   -5.7839    2.2330 H         1 UNL1        0.0000
     57 H           3.6523   -8.7289    4.9917 H         1 UNL1        0.0000
     58 H           4.7434   -7.5375    6.8689 H         1 UNL1        0.0000
     59 H           6.0797   -5.5055    6.4317 H         1 UNL1        0.0000
     60 H           3.3311   -3.9794    4.8396 H         1 UNL1        0.0000
     61 H           1.8522   -5.1867    2.9144 H         1 UNL1        0.0000
     62 H           0.7109   -3.9740    3.5165 H         1 UNL1        0.0000
     63 H           0.6330   -4.9039    5.7048 H         1 UNL1        0.0000
     64 H           2.1365   -5.7792    5.4917 H         1 UNL1        0.0000
     65 H          -0.9916   -5.7127    3.2976 H         1 UNL1        0.0000
     66 H          -4.3519   -7.2696    2.5902 H         1 UNL1        0.0000
     67 H          -3.5624   -7.5031    4.1555 H         1 UNL1        0.0000
     68 H          -3.8979   -8.9087    3.0881 H         1 UNL1        0.0000
     69 H           0.0976  -11.4845    3.1092 H         1 UNL1        0.0000
     70 H          -1.0142  -11.7530    4.5071 H         1 UNL1        0.0000
     71 H          -1.5025  -12.1934    2.8673 H         1 UNL1        0.0000
     72 H           0.5150  -10.0904    5.0777 H         1 UNL1        0.0000
     73 H           1.5791   -8.0449    5.8497 H         1 UNL1        0.0000
     74 H           1.5429   -2.7452    1.8759 H         1 UNL1        0.0000
     75 H           2.4918   -1.4660    0.1042 H         1 UNL1        0.0000
     76 H           6.7674    0.2477   -2.0145 H         1 UNL1        0.0000
     77 H           5.5600    1.4863   -1.7015 H         1 UNL1        0.0000
     78 H           5.8699   -0.3064   -4.1554 H         1 UNL1        0.0000
     79 H           6.1245    1.3847   -4.0638 H         1 UNL1        0.0000
     80 H           3.5964    2.0147   -2.4030 H         1 UNL1        0.0000
     81 H           2.3170    1.6575   -3.5154 H         1 UNL1        0.0000
     82 H           5.7674    1.9895   -6.0938 H         1 UNL1        0.0000
     83 H           6.9516    3.2795   -6.2917 H         1 UNL1        0.0000
     84 H           5.2434    3.5814   -6.6861 H         1 UNL1        0.0000
     85 H           6.1309    5.7107   -6.5258 H         1 UNL1        0.0000
     86 H           7.3308    5.3991   -5.2031 H         1 UNL1        0.0000
     87 H           7.0672    7.0235   -5.8222 H         1 UNL1        0.0000
     88 H           1.3275    7.9643   -5.0708 H         1 UNL1        0.0000
     89 H           2.3044    9.3196   -4.4975 H         1 UNL1        0.0000
     90 H           1.7284    8.1365   -3.3169 H         1 UNL1        0.0000
     91 H           1.1565    5.9118   -3.9754 H         1 UNL1        0.0000
     92 H           1.3060    3.5433   -3.6059 H         1 UNL1        0.0000
     93 H           3.8686   -1.3425   -4.1465 H         1 UNL1        0.0000
     94 H           2.3635   -0.5174   -3.8781 H         1 UNL1        0.0000
     95 H           3.3422   -1.8257   -1.8887 H         1 UNL1        0.0000
     96 H           2.8241   -0.1570   -1.5468 H         1 UNL1        0.0000
     97 H           6.3336   -1.6345    2.0204 H         1 UNL1        0.0000
     98 H           2.1660   -2.8508    4.5286 H         1 UNL1        0.0000
     99 H           3.9950    0.8151   -5.1666 H         1 UNL1        0.0000
@<TRIPOS>BOND
     1    1    2 2
     2    1    3 2
     3    1    4 1
     4    1   15 1
     5    4   55 1
     6    4    5 1
     7    5    6 ar
     8    5   14 ar
     9    6    7 ar
    10    6   56 1
    11    7    8 1
    12    7   12 ar
    13    8    9 1
    14    8   10 1
    15    8   11 1
    16   12   57 1
    17   12   13 ar
    18   13   14 ar
    19   13   58 1
    20   14   59 1
    21   15   16 ar
    22   15   54 ar
    23   16   17 1
    24   16   30 ar
    25   17   60 1
    26   17   18 1
    27   18   19 1
    28   18   61 1
    29   18   62 1
    30   19   20 1
    31   19   63 1
    32   19   64 1
    33   20   21 ar
    34   20   29 ar
    35   21   22 ar
    36   21   65 1
    37   22   25 ar
    38   22   23 1
    39   23   24 1
    40   24   66 1
    41   24   67 1
    42   24   68 1
    43   25   28 ar
    44   25   26 1
    45   26   27 1
    46   27   69 1
    47   27   70 1
    48   27   71 1
    49   28   29 ar
    50   28   72 1
    51   29   73 1
    52   30   31 ar
    53   30   74 1
    54   31   32 ar
    55   31   75 1
    56   32   54 ar
    57   32   33 1
    58   33   34 2
    59   33   35 am
    60   35   53 1
    61   35   36 1
    62   36   76 1
    63   36   37 1
    64   36   77 1
    65   37   78 1
    66   37   38 1
    67   37   79 1
    68   38   52 1
    69   38   39 1
    70   39   40 1
    71   39   80 1
    72   39   81 1
    73   40   41 ar
    74   40   51 ar
    75   41   42 1
    76   41   44 ar
    77   42   43 1
    78   43   82 1
    79   43   83 1
    80   43   84 1
    81   44   45 1
    82   44   47 ar
    83   45   46 1
    84   46   85 1
    85   46   86 1
    86   46   87 1
    87   47   48 1
    88   47   50 ar
    89   48   49 1
    90   49   88 1
    91   49   89 1
    92   49   90 1
    93   50   91 1
    94   50   51 ar
    95   51   92 1
    96   52   53 1
    97   52   93 1
    98   52   94 1
    99   53   95 1
   100   53   96 1
   101   54   97 1
   102   17   98 1
   103   38   99 1
@<TRIPOS>SUBSTRUCTURE
1 UNL1 1
@<TRIPOS>COMMENT
0.0000



