@<TRIPOS>MOLECULE
*****
43 45 1
SMALL
GASTEIGER

@<TRIPOS>DICT

@<TRIPOS>ATOM
      1 O           1.3843    0.3323    0.0930 O.2       1 UNL1        0.0000
      2 C           2.4943   -0.1255   -0.1544 C.2       1 UNL1        0.0000
      3 N           3.5503    0.6245   -0.6149 N.am      1 UNL1        0.0000
      4 C           3.4810    2.0519   -0.8150 C.3       1 UNL1        0.0000
      5 C           3.8661    2.4173   -2.2267 C.ar      1 UNL1        0.0000
      6 C           5.1927    2.7143   -2.5819 C.ar      1 UNL1        0.0000
      7 O           6.1129    2.6574   -1.5674 O.3       1 UNL1        0.0000
      8 C           7.4490    3.0358   -1.8758 C.3       1 UNL1        0.0000
      9 C           5.4925    3.0325   -3.9115 C.ar      1 UNL1        0.0000
     10 C           4.4945    3.0548   -4.8930 C.ar      1 UNL1        0.0000
     11 O           4.9364    3.3838   -6.1462 O.3       1 UNL1        0.0000
     12 C           3.9694    3.3872   -7.1890 C.3       1 UNL1        0.0000
     13 C           3.1819    2.7511   -4.5427 C.ar      1 UNL1        0.0000
     14 C           2.8720    2.4288   -3.2196 C.ar      1 UNL1        0.0000
     15 C           2.7919   -1.5838    0.0369 C.ar      1 UNL1        0.0000
     16 N           4.0570   -1.9997   -0.2613 N.ar      1 UNL1        0.0000
     17 C           4.3273   -3.3136   -0.0889 C.ar      1 UNL1        0.0000
     18 C           5.6003   -3.8028   -0.3785 C.ar      1 UNL1        0.0000
     19 O           6.5704   -2.9438   -0.8369 O.3       1 UNL1        0.0000
     20 C           5.9472   -5.1431   -0.2257 C.ar      1 UNL1        0.0000
     21 C           4.9944   -6.0445    0.2347 C.ar      1 UNL1        0.0000
     22 C           3.7086   -5.5960    0.5372 C.ar      1 UNL1        0.0000
     23 C           3.3689   -4.2395    0.3789 C.ar      1 UNL1        0.0000
     24 C           2.0850   -3.7674    0.6757 C.ar      1 UNL1        0.0000
     25 C           1.7884   -2.4209    0.5032 C.ar      1 UNL1        0.0000
     26 H           4.4316    0.1510   -0.7755 H         1 UNL1        0.0000
     27 H           4.1486    2.5214   -0.0847 H         1 UNL1        0.0000
     28 H           2.4748    2.4257   -0.5928 H         1 UNL1        0.0000
     29 H           8.0280    2.9992   -0.9480 H         1 UNL1        0.0000
     30 H           7.4955    4.0623   -2.2545 H         1 UNL1        0.0000
     31 H           7.9023    2.3306   -2.5799 H         1 UNL1        0.0000
     32 H           6.5049    3.2659   -4.2249 H         1 UNL1        0.0000
     33 H           4.4825    3.6491   -8.1194 H         1 UNL1        0.0000
     34 H           3.1985    4.1439   -7.0097 H         1 UNL1        0.0000
     35 H           3.5271    2.3943   -7.3214 H         1 UNL1        0.0000
     36 H           2.3768    2.7525   -5.2695 H         1 UNL1        0.0000
     37 H           1.8436    2.1826   -2.9587 H         1 UNL1        0.0000
     38 H           6.1267   -2.0729   -0.8799 H         1 UNL1        0.0000
     39 H           6.9530   -5.4757   -0.4660 H         1 UNL1        0.0000
     40 H           5.2509   -7.0939    0.3577 H         1 UNL1        0.0000
     41 H           2.9718   -6.3115    0.8969 H         1 UNL1        0.0000
     42 H           1.3129   -4.4407    1.0403 H         1 UNL1        0.0000
     43 H           0.7991   -2.0348    0.7278 H         1 UNL1        0.0000
@<TRIPOS>BOND
     1    1    2 2
     2    2   15 1
     3    2    3 am
     4    3    4 1
     5    3   26 1
     6    4   27 1
     7    4    5 1
     8    4   28 1
     9    5    6 ar
    10    5   14 ar
    11    6    7 1
    12    6    9 ar
    13    7    8 1
    14    8   29 1
    15    8   30 1
    16    8   31 1
    17    9   10 ar
    18    9   32 1
    19   10   11 1
    20   10   13 ar
    21   11   12 1
    22   12   33 1
    23   12   35 1
    24   12   34 1
    25   13   14 ar
    26   13   36 1
    27   14   37 1
    28   15   25 ar
    29   15   16 ar
    30   16   17 ar
    31   17   18 ar
    32   17   23 ar
    33   18   19 1
    34   18   20 ar
    35   19   38 1
    36   20   21 ar
    37   20   39 1
    38   21   22 ar
    39   21   40 1
    40   22   23 ar
    41   22   41 1
    42   23   24 ar
    43   24   25 ar
    44   24   42 1
    45   25   43 1
@<TRIPOS>SUBSTRUCTURE
1 UNL1 1
@<TRIPOS>COMMENT
0.0000



