@<TRIPOS>MOLECULE
*****
61 64 1
SMALL
GASTEIGER

@<TRIPOS>DICT

@<TRIPOS>ATOM
      1 CL          6.5967  -13.6389    4.0325 Cl        1 UNL1        0.0000
      2 C           6.7512  -11.9453    4.3484 C.ar      1 UNL1        0.0000
      3 C           7.5650  -11.4637    5.3788 C.ar      1 UNL1        0.0000
      4 O           8.2344  -12.3976    6.1244 O.3       1 UNL1        0.0000
      5 C           8.9418  -11.9446    7.2702 C.3       1 UNL1        0.0000
      6 C           7.6740  -10.0802    5.5532 C.ar      1 UNL1        0.0000
      7 C           6.9555   -9.1851    4.7387 C.ar      1 UNL1        0.0000
      8 O           7.2133   -7.8407    4.7866 O.3       1 UNL1        0.0000
      9 C           7.3527   -7.2926    6.0943 C.3       1 UNL1        0.0000
     10 C           6.1054   -9.6786    3.7363 C.ar      1 UNL1        0.0000
     11 N           5.3250   -8.9025    2.8521 N.am      1 UNL1        0.0000
     12 C           4.8841   -7.5975    2.9830 C.2       1 UNL1        0.0000
     13 O           4.9203   -6.9073    3.9967 O.2       1 UNL1        0.0000
     14 C           4.1971   -7.0860    1.7221 C.3       1 UNL1        0.0000
     15 S           5.3977   -6.6332    0.4413 S.3       1 UNL1        0.0000
     16 C           5.9890   -8.2193   -0.1160 C.2       1 UNL1        0.0000
     17 N           7.3134   -8.3742   -0.6330 N.pl3     1 UNL1        0.0000
     18 C           8.1900   -7.2448   -0.7814 C.ar      1 UNL1        0.0000
     19 C           9.4674   -7.2456   -0.1941 C.ar      1 UNL1        0.0000
     20 C          10.3401   -6.1655   -0.3684 C.ar      1 UNL1        0.0000
     21 C           9.9529   -5.0485   -1.1092 C.ar      1 UNL1        0.0000
     22 O          10.8898   -4.0558   -1.1906 O.3       1 UNL1        0.0000
     23 C          10.5545   -2.9151   -1.9809 C.3       1 UNL1        0.0000
     24 C          11.7392   -1.9658   -1.9780 C.3       1 UNL1        0.0000
     25 C           8.6875   -5.0298   -1.6911 C.ar      1 UNL1        0.0000
     26 C           7.8265   -6.1263   -1.5487 C.ar      1 UNL1        0.0000
     27 C           7.8314   -9.6321   -1.0136 C.2       1 UNL1        0.0000
     28 N           8.9394   -9.9761   -1.5785 N.2       1 UNL1        0.0000
     29 C           6.8926  -10.6946   -0.7473 C.2       1 UNL1        0.0000
     30 C           6.9336  -12.1071   -0.8105 C.2       1 UNL1        0.0000
     31 C           8.0853  -12.9794   -1.1488 C.3       1 UNL1        0.0000
     32 N           5.7470  -12.6461   -0.4811 N.2       1 UNL1        0.0000
     33 N           4.9646  -11.5824   -0.2263 N.pl3     1 UNL1        0.0000
     34 H           3.9977  -11.7409    0.0319 H         1 UNL1        0.0000
     35 C           5.6279  -10.3944   -0.3082 C.2       1 UNL1        0.0000
     36 N           5.1137   -9.1901    0.0272 N.2       1 UNL1        0.0000
     37 C           6.0358  -11.0640    3.5357 C.ar      1 UNL1        0.0000
     38 H           9.3298  -12.8246    7.7919 H         1 UNL1        0.0000
     39 H           8.2799  -11.4119    7.9611 H         1 UNL1        0.0000
     40 H           9.7968  -11.3248    6.9823 H         1 UNL1        0.0000
     41 H           8.3596   -9.6796    6.2899 H         1 UNL1        0.0000
     42 H           8.3834   -7.4107    6.4441 H         1 UNL1        0.0000
     43 H           6.6490   -7.7353    6.8083 H         1 UNL1        0.0000
     44 H           7.1433   -6.2203    6.0357 H         1 UNL1        0.0000
     45 H           4.9606   -9.3935    2.0405 H         1 UNL1        0.0000
     46 H           3.6359   -6.1833    1.9871 H         1 UNL1        0.0000
     47 H           3.4606   -7.8112    1.3613 H         1 UNL1        0.0000
     48 H           9.8013   -8.0906    0.4064 H         1 UNL1        0.0000
     49 H          11.3300   -6.1950    0.0822 H         1 UNL1        0.0000
     50 H           9.6849   -2.4015   -1.5548 H         1 UNL1        0.0000
     51 H          10.3453   -3.2172   -3.0136 H         1 UNL1        0.0000
     52 H          11.9686   -1.6375   -0.9590 H         1 UNL1        0.0000
     53 H          11.5319   -1.0854   -2.5933 H         1 UNL1        0.0000
     54 H          12.6350   -2.4636   -2.3635 H         1 UNL1        0.0000
     55 H           8.3339   -4.1791   -2.2645 H         1 UNL1        0.0000
     56 H           6.8602   -6.0865   -2.0476 H         1 UNL1        0.0000
     57 H           9.5101   -9.1533   -1.7879 H         1 UNL1        0.0000
     58 H           8.4244  -12.7926   -2.1719 H         1 UNL1        0.0000
     59 H           7.8220  -14.0395   -1.0683 H         1 UNL1        0.0000
     60 H           8.9187  -12.7916   -0.4637 H         1 UNL1        0.0000
     61 H           5.4093  -11.4777    2.7505 H         1 UNL1        0.0000
@<TRIPOS>BOND
     1    1    2 1
     2    2    3 ar
     3    2   37 ar
     4    3    6 ar
     5    3    4 1
     6    4    5 1
     7    5   39 1
     8    5   40 1
     9    5   38 1
    10    6    7 ar
    11    6   41 1
    12    7    8 1
    13    7   10 ar
    14    8    9 1
    15    9   42 1
    16    9   43 1
    17    9   44 1
    18   10   37 ar
    19   10   11 1
    20   11   12 am
    21   11   45 1
    22   12   13 2
    23   12   14 1
    24   14   15 1
    25   14   47 1
    26   14   46 1
    27   15   16 1
    28   16   36 2
    29   16   17 1
    30   17   18 1
    31   17   27 1
    32   18   19 ar
    33   18   26 ar
    34   19   48 1
    35   19   20 ar
    36   20   21 ar
    37   20   49 1
    38   21   22 1
    39   21   25 ar
    40   22   23 1
    41   23   50 1
    42   23   51 1
    43   23   24 1
    44   24   52 1
    45   24   54 1
    46   24   53 1
    47   25   26 ar
    48   25   55 1
    49   26   56 1
    50   27   28 2
    51   27   29 1
    52   28   57 1
    53   29   35 2
    54   29   30 1
    55   30   31 1
    56   30   32 2
    57   31   60 1
    58   31   58 1
    59   31   59 1
    60   32   33 1
    61   33   35 1
    62   33   34 1
    63   35   36 1
    64   37   61 1
@<TRIPOS>SUBSTRUCTURE
1 UNL1 1
@<TRIPOS>COMMENT
0.0000



