@<TRIPOS>MOLECULE
*****
45 48 1
SMALL
GASTEIGER

@<TRIPOS>DICT

@<TRIPOS>ATOM
      1 CL         19.7037   -1.3997    3.9445 Cl        1 UNL1        0.0000
      2 C          18.4485   -1.4043    2.7675 C.ar      1 UNL1        0.0000
      3 C          18.7716   -1.4645    1.4111 C.ar      1 UNL1        0.0000
      4 C          17.7548   -1.4713    0.4542 C.ar      1 UNL1        0.0000
      5 C          16.4248   -1.3937    0.8696 C.ar      1 UNL1        0.0000
      6 O          15.3555   -1.4376   -0.0381 O.3       1 UNL1        0.0000
      7 C          15.3832   -0.5460   -1.1127 C.2       1 UNL1        0.0000
      8 O          16.2343    0.3110   -1.3162 O.2       1 UNL1        0.0000
      9 C          14.1460   -0.7828   -1.9552 C.3       1 UNL1        0.0000
     10 S          14.3532   -0.1460   -3.6468 S.3       1 UNL1        0.0000
     11 C          15.7830   -1.0684   -4.0875 C.2       1 UNL1        0.0000
     12 N          15.7641   -2.3541   -3.8882 N.2       1 UNL1        0.0000
     13 C          16.8965   -3.0666   -4.2790 C.2       1 UNL1        0.0000
     14 C          16.8630   -4.5356   -3.9815 C.ar      1 UNL1        0.0000
     15 C          15.7623   -5.1170   -3.3423 C.ar      1 UNL1        0.0000
     16 C          15.7424   -6.4924   -3.0910 C.ar      1 UNL1        0.0000
     17 C          16.8116   -7.3051   -3.4755 C.ar      1 UNL1        0.0000
     18 O          16.6568   -8.6305   -3.1784 O.3       1 UNL1        0.0000
     19 C          17.6699   -9.5158   -3.6397 C.3       1 UNL1        0.0000
     20 C          17.9136   -6.7281   -4.1063 C.ar      1 UNL1        0.0000
     21 C          17.9392   -5.3501   -4.3580 C.ar      1 UNL1        0.0000
     22 N          17.9390   -2.5577   -4.8837 N.2       1 UNL1        0.0000
     23 C          17.8565   -1.2192   -5.1231 C.2       1 UNL1        0.0000
     24 N          16.8710   -0.4279   -4.6014 N.pl3     1 UNL1        0.0000
     25 N          16.8671    0.7852   -5.2448 N.am      1 UNL1        0.0000
     26 C          18.0493    0.8348   -5.9662 C.2       1 UNL1        0.0000
     27 O          18.5514    1.8088   -6.4961 O.2       1 UNL1        0.0000
     28 C          18.6394   -0.5267   -5.9590 C.2       1 UNL1        0.0000
     29 C          16.0964   -1.3565    2.2250 C.ar      1 UNL1        0.0000
     30 C          17.1157   -1.3556    3.1784 C.ar      1 UNL1        0.0000
     31 H          19.8102   -1.5068    1.0936 H         1 UNL1        0.0000
     32 H          18.0114   -1.5272   -0.6000 H         1 UNL1        0.0000
     33 H          13.3045   -0.2670   -1.4839 H         1 UNL1        0.0000
     34 H          13.9230   -1.8530   -2.0013 H         1 UNL1        0.0000
     35 H          14.9084   -4.5167   -3.0410 H         1 UNL1        0.0000
     36 H          14.8809   -6.9367   -2.5976 H         1 UNL1        0.0000
     37 H          17.3753  -10.5332   -3.3646 H         1 UNL1        0.0000
     38 H          18.6283   -9.3036   -3.1549 H         1 UNL1        0.0000
     39 H          17.7610   -9.4793   -4.7305 H         1 UNL1        0.0000
     40 H          18.7695   -7.3181   -4.4173 H         1 UNL1        0.0000
     41 H          18.8064   -4.9218   -4.8564 H         1 UNL1        0.0000
     42 H          16.4996    1.6083   -4.7842 H         1 UNL1        0.0000
     43 H          19.4810   -0.8447   -6.5413 H         1 UNL1        0.0000
     44 H          15.0575   -1.3262    2.5403 H         1 UNL1        0.0000
     45 H          16.8668   -1.3191    4.2356 H         1 UNL1        0.0000
@<TRIPOS>BOND
     1    1    2 1
     2    2    3 ar
     3    2   30 ar
     4    3   31 1
     5    3    4 ar
     6    4    5 ar
     7    4   32 1
     8    5   29 ar
     9    5    6 1
    10    6    7 1
    11    7    8 2
    12    7    9 1
    13    9   10 1
    14    9   33 1
    15    9   34 1
    16   10   11 1
    17   11   12 2
    18   11   24 1
    19   12   13 1
    20   13   14 1
    21   13   22 2
    22   14   21 ar
    23   14   15 ar
    24   15   16 ar
    25   15   35 1
    26   16   17 ar
    27   16   36 1
    28   17   20 ar
    29   17   18 1
    30   18   19 1
    31   19   37 1
    32   19   38 1
    33   19   39 1
    34   20   21 ar
    35   20   40 1
    36   21   41 1
    37   22   23 1
    38   23   24 1
    39   23   28 2
    40   24   25 1
    41   25   26 am
    42   25   42 1
    43   26   27 2
    44   26   28 1
    45   28   43 1
    46   29   30 ar
    47   29   44 1
    48   30   45 1
@<TRIPOS>SUBSTRUCTURE
1 UNL1 1
@<TRIPOS>COMMENT
0.0000



