@<TRIPOS>MOLECULE
*****
67 71 1
SMALL
GASTEIGER

@<TRIPOS>DICT

@<TRIPOS>ATOM
      1 O           4.2068    1.2697    2.9400 O.2       1 UNL1        0.0000
      2 C           4.9353    0.5377    2.2764 C.2       1 UNL1        0.0000
      3 N           4.4791   -0.2260    1.2256 N.am      1 UNL1        0.0000
      4 C           3.1540   -0.0254    0.7015 C.3       1 UNL1        0.0000
      5 C           2.9180   -0.8475   -0.5342 C.ar      1 UNL1        0.0000
      6 C           2.0986   -1.9792   -0.5010 C.ar      1 UNL1        0.0000
      7 C           1.8770   -2.7340   -1.6603 C.ar      1 UNL1        0.0000
      8 C           2.4792   -2.3938   -2.8793 C.ar      1 UNL1        0.0000
      9 N           2.2961   -3.1235   -4.0680 N.4       1 UNL1        1.0000
     10 C           1.0964   -3.9519   -4.1707 C.3       1 UNL1        0.0000
     11 C           3.5274   -3.7827   -4.5122 C.3       1 UNL1        0.0000
     12 C           3.3023   -1.2562   -2.8952 C.ar      1 UNL1        0.0000
     13 C           3.5223   -0.4929   -1.7445 C.ar      1 UNL1        0.0000
     14 C           6.4227    0.3513    2.6037 C.3       1 UNL1        0.0000
     15 N           7.2334   -0.1262    1.4448 N.4       1 UNL1        1.0000
     16 C           8.4920   -0.8110    1.8781 C.3       1 UNL1        0.0000
     17 C           9.7104    0.0676    2.0615 C.2       1 UNL1        0.0000
     18 O           9.6468    0.9843    3.0772 O.3       1 UNL1        0.0000
     19 C          10.8287    1.6499    3.0895 C.2       1 UNL1        0.0000
     20 C          11.6598    1.1760    2.1030 C.2       1 UNL1        0.0000
     21 C          10.9382    0.1590    1.4334 C.2       1 UNL1        0.0000
     22 C           8.7053   -2.0621    1.0564 C.2       1 UNL1        0.0000
     23 C           9.0650   -3.2795    1.8586 C.2       1 UNL1        0.0000
     24 O           9.1853   -3.2240    3.0821 O.2       1 UNL1        0.0000
     25 C           9.2228   -4.6036    1.1527 C.3       1 UNL1        0.0000
     26 C           9.7907   -4.3965   -0.2320 C.3       1 UNL1        0.0000
     27 C           8.8978   -3.4522   -1.0186 C.3       1 UNL1        0.0000
     28 C           8.6009   -2.1486   -0.2874 C.2       1 UNL1        0.0000
     29 N           8.3078   -1.1107   -1.1477 N.pl3     1 UNL1        0.0000
     30 C           7.8812    0.2159   -0.9149 C.ar      1 UNL1        0.0000
     31 C           7.3971    0.7170    0.3205 C.ar      1 UNL1        0.0000
     32 C           7.0134    2.0771    0.3582 C.ar      1 UNL1        0.0000
     33 C           7.1148    2.9180   -0.7536 C.ar      1 UNL1        0.0000
     34 C           7.6082    2.4254   -1.9477 C.ar      1 UNL1        0.0000
     35 C           7.9916    1.0908   -2.0222 C.ar      1 UNL1        0.0000
     36 H           5.2059   -0.6135    0.6277 H         1 UNL1        0.0000
     37 H           3.0178    1.0389    0.4736 H         1 UNL1        0.0000
     38 H           2.4336   -0.2745    1.4896 H         1 UNL1        0.0000
     39 H           1.6219   -2.2849    0.4279 H         1 UNL1        0.0000
     40 H           1.2371   -3.6069   -1.5784 H         1 UNL1        0.0000
     41 H           0.1976   -3.3835   -3.9055 H         1 UNL1        0.0000
     42 H           1.1634   -4.8446   -3.5391 H         1 UNL1        0.0000
     43 H           0.9646   -4.2852   -5.2063 H         1 UNL1        0.0000
     44 H           4.3380   -3.0667   -4.6851 H         1 UNL1        0.0000
     45 H           3.3579   -4.3007   -5.4627 H         1 UNL1        0.0000
     46 H           3.8624   -4.5254   -3.7783 H         1 UNL1        0.0000
     47 H           3.7609   -0.9377   -3.8280 H         1 UNL1        0.0000
     48 H           4.1620    0.3856   -1.8018 H         1 UNL1        0.0000
     49 H           6.4346   -0.3996    3.4035 H         1 UNL1        0.0000
     50 H           6.8309    1.2779    3.0207 H         1 UNL1        0.0000
     51 H           8.2840   -1.1553    2.8989 H         1 UNL1        0.0000
     52 H          10.9252    2.4151    3.8469 H         1 UNL1        0.0000
     53 H          12.6615    1.5226    1.8932 H         1 UNL1        0.0000
     54 H          11.2702   -0.4397    0.5972 H         1 UNL1        0.0000
     55 H           8.2461   -5.0978    1.1167 H         1 UNL1        0.0000
     56 H           9.9070   -5.2314    1.7340 H         1 UNL1        0.0000
     57 H           9.8770   -5.3557   -0.7544 H         1 UNL1        0.0000
     58 H          10.8021   -3.9747   -0.1622 H         1 UNL1        0.0000
     59 H           7.9460   -3.9431   -1.2582 H         1 UNL1        0.0000
     60 H           9.3982   -3.2445   -1.9734 H         1 UNL1        0.0000
     61 H           8.3252   -1.3508   -2.1340 H         1 UNL1        0.0000
     62 H           6.6353    2.5336    1.2680 H         1 UNL1        0.0000
     63 H           6.8114    3.9590   -0.6740 H         1 UNL1        0.0000
     64 H           7.6994    3.0729   -2.8149 H         1 UNL1        0.0000
     65 H           8.3865    0.7252   -2.9676 H         1 UNL1        0.0000
     66 H           2.1378   -2.3620   -4.8173 H         1 UNL1        0.0000
     67 H           6.6401   -0.9428    1.0608 H         1 UNL1        0.0000
@<TRIPOS>BOND
     1    1    2 2
     2    2   14 1
     3    2    3 am
     4    3    4 1
     5    3   36 1
     6    4    5 1
     7    4   37 1
     8    4   38 1
     9    5   13 ar
    10    5    6 ar
    11    6    7 ar
    12    6   39 1
    13    7    8 ar
    14    7   40 1
    15    8   12 ar
    16    8    9 1
    17    9   10 1
    18    9   11 1
    19   10   41 1
    20   10   42 1
    21   10   43 1
    22   11   44 1
    23   11   45 1
    24   11   46 1
    25   12   13 ar
    26   12   47 1
    27   13   48 1
    28   14   49 1
    29   14   50 1
    30   14   15 1
    31   15   31 1
    32   15   16 1
    33   16   22 1
    34   16   17 1
    35   16   51 1
    36   17   21 2
    37   17   18 1
    38   18   19 1
    39   19   20 2
    40   19   52 1
    41   20   21 1
    42   20   53 1
    43   21   54 1
    44   22   28 2
    45   22   23 1
    46   23   25 1
    47   23   24 2
    48   25   26 1
    49   25   55 1
    50   25   56 1
    51   26   27 1
    52   26   57 1
    53   26   58 1
    54   27   28 1
    55   27   59 1
    56   27   60 1
    57   28   29 1
    58   29   30 1
    59   29   61 1
    60   30   31 ar
    61   30   35 ar
    62   31   32 ar
    63   32   33 ar
    64   32   62 1
    65   33   34 ar
    66   33   63 1
    67   34   35 ar
    68   34   64 1
    69   35   65 1
    70    9   66 1
    71   15   67 1
@<TRIPOS>SUBSTRUCTURE
1 UNL1 1
@<TRIPOS>COMMENT
0.0000



