@<TRIPOS>MOLECULE
*****
48 50 1
SMALL
GASTEIGER

@<TRIPOS>DICT

@<TRIPOS>ATOM
      1 CL         -3.1511   -2.5392   -5.5631 Cl        1 UNL1        0.0000
      2 C          -1.9907   -2.0214   -4.3090 C.3       1 UNL1        0.0000
      3 C          -2.7260   -1.3094   -3.1761 C.3       1 UNL1        0.0000
      4 N          -1.8028   -0.6698   -2.1660 N.am      1 UNL1        0.0000
      5 S          -2.6010    0.5357   -1.2129 S.o2      1 UNL1        0.0000
      6 O          -3.9321    0.0391   -0.9244 O.2       1 UNL1        0.0000
      7 O          -1.7278    0.9813   -0.1555 O.2       1 UNL1        0.0000
      8 C          -2.7333    1.8705   -2.3816 C.ar      1 UNL1        0.0000
      9 C          -3.9334    2.0959   -3.0606 C.ar      1 UNL1        0.0000
     10 C          -3.9719    3.0434   -4.0852 C.ar      1 UNL1        0.0000
     11 C          -2.8142    3.7647   -4.4196 C.ar      1 UNL1        0.0000
     12 C          -2.7364    4.6179   -5.6435 C.2       1 UNL1        0.0000
     13 O          -2.0091    5.6010   -5.6298 O.2       1 UNL1        0.0000
     14 N          -3.4718    4.1325   -6.6991 N.am      1 UNL1        0.0000
     15 C          -3.3430    4.5906   -7.9795 C.2       1 UNL1        0.0000
     16 S          -4.3834    3.7904   -9.0684 S.3       1 UNL1        0.0000
     17 C          -3.7199    4.7118  -10.3605 C.ar      1 UNL1        0.0000
     18 C          -2.7288    5.5551   -9.8523 C.ar      1 UNL1        0.0000
     19 N          -2.5387    5.4873   -8.4803 N.2       1 UNL1        0.0000
     20 C          -2.0219    6.3809  -10.7512 C.ar      1 UNL1        0.0000
     21 C          -2.3163    6.3479  -12.1248 C.ar      1 UNL1        0.0000
     22 C          -1.5782    7.2429  -13.0770 C.3       1 UNL1        0.0000
     23 C          -3.3390    5.5182  -12.5915 C.ar      1 UNL1        0.0000
     24 C          -4.0498    4.6840  -11.7236 C.ar      1 UNL1        0.0000
     25 C          -1.6511    3.6116   -3.6529 C.ar      1 UNL1        0.0000
     26 C          -1.6067    2.6598   -2.6337 C.ar      1 UNL1        0.0000
     27 C          -1.0167   -1.6801   -1.3799 C.3       1 UNL1        0.0000
     28 C           0.2324   -1.1330   -0.6821 C.3       1 UNL1        0.0000
     29 CL          1.2575   -0.1755   -1.7816 Cl        1 UNL1        0.0000
     30 H          -1.2516   -1.3704   -4.7833 H         1 UNL1        0.0000
     31 H          -1.4880   -2.9272   -3.9621 H         1 UNL1        0.0000
     32 H          -3.3932   -2.0103   -2.6599 H         1 UNL1        0.0000
     33 H          -3.3494   -0.5330   -3.6299 H         1 UNL1        0.0000
     34 H          -4.8221    1.5117   -2.8299 H         1 UNL1        0.0000
     35 H          -4.9057    3.1956   -4.6200 H         1 UNL1        0.0000
     36 H          -4.0490    3.3133   -6.6033 H         1 UNL1        0.0000
     37 H          -1.2460    7.0325  -10.3592 H         1 UNL1        0.0000
     38 H          -0.5646    7.4473  -12.7170 H         1 UNL1        0.0000
     39 H          -2.1129    8.1906  -13.1906 H         1 UNL1        0.0000
     40 H          -1.4832    6.7687  -14.0598 H         1 UNL1        0.0000
     41 H          -3.5917    5.5081  -13.6507 H         1 UNL1        0.0000
     42 H          -4.8338    4.0326  -12.0971 H         1 UNL1        0.0000
     43 H          -0.7624    4.1984   -3.8824 H         1 UNL1        0.0000
     44 H          -0.6855    2.5130   -2.0725 H         1 UNL1        0.0000
     45 H          -0.6645   -2.4583   -2.0651 H         1 UNL1        0.0000
     46 H          -1.6742   -2.1799   -0.6606 H         1 UNL1        0.0000
     47 H           0.8429   -1.9701   -0.3281 H         1 UNL1        0.0000
     48 H           0.0009   -0.5270    0.1945 H         1 UNL1        0.0000
@<TRIPOS>BOND
     1    1    2 1
     2    2    3 1
     3    2   30 1
     4    2   31 1
     5    3   32 1
     6    3   33 1
     7    3    4 1
     8    4    5 1
     9    4   27 1
    10    5    6 2
    11    5    7 2
    12    5    8 1
    13    8    9 ar
    14    8   26 ar
    15    9   10 ar
    16    9   34 1
    17   10   11 ar
    18   10   35 1
    19   11   12 1
    20   11   25 ar
    21   12   13 2
    22   12   14 am
    23   14   36 1
    24   14   15 1
    25   15   16 1
    26   15   19 2
    27   16   17 1
    28   17   18 ar
    29   17   24 ar
    30   18   19 1
    31   18   20 ar
    32   20   37 1
    33   20   21 ar
    34   21   22 1
    35   21   23 ar
    36   22   38 1
    37   22   39 1
    38   22   40 1
    39   23   24 ar
    40   23   41 1
    41   24   42 1
    42   25   26 ar
    43   25   43 1
    44   26   44 1
    45   27   45 1
    46   27   28 1
    47   27   46 1
    48   28   29 1
    49   28   47 1
    50   28   48 1
@<TRIPOS>SUBSTRUCTURE
1 UNL1 1
@<TRIPOS>COMMENT
0.0000



