@<TRIPOS>MOLECULE
*****
48 51 1
SMALL
GASTEIGER

@<TRIPOS>DICT

@<TRIPOS>ATOM
      1 BR          7.9396   -4.6990    0.3677 Br        1 UNL1        0.0000
      2 C           9.6562   -3.9020    0.2549 C.ar      1 UNL1        0.0000
      3 C           9.8609   -2.5835    0.6789 C.ar      1 UNL1        0.0000
      4 O           8.8268   -1.8392    1.1813 O.3       1 UNL1        0.0000
      5 C          11.1337   -2.0076    0.5780 C.ar      1 UNL1        0.0000
      6 C          11.3560   -0.6234    1.0447 C.2       1 UNL1        0.0000
      7 N          12.4425    0.0218    0.7572 N.2       1 UNL1        0.0000
      8 C          12.5883    1.3415    1.2208 C.ar      1 UNL1        0.0000
      9 C          11.5442    2.2701    1.2391 C.ar      1 UNL1        0.0000
     10 C          11.7630    3.5747    1.6958 C.ar      1 UNL1        0.0000
     11 C          10.6013    4.4884    1.7772 C.2       1 UNL1        0.0000
     12 O           9.5752    4.0601    2.2900 O.2       1 UNL1        0.0000
     13 N          10.7958    5.7234    1.1873 N.am      1 UNL1        0.0000
     14 C           9.8572    6.7893    1.1525 C.ar      1 UNL1        0.0000
     15 C           9.9805    7.8219    0.1709 C.ar      1 UNL1        0.0000
     16 C           9.0217    8.8714    0.1720 C.ar      1 UNL1        0.0000
     17 C           7.9985    8.8920    1.1285 C.ar      1 UNL1        0.0000
     18 C           7.8992    7.8901    2.0852 C.ar      1 UNL1        0.0000
     19 C           8.8202    6.8478    2.0945 C.ar      1 UNL1        0.0000
     20 C           9.0808    9.8918   -0.7913 C.ar      1 UNL1        0.0000
     21 C          10.0718    9.9014   -1.7689 C.ar      1 UNL1        0.0000
     22 C          11.0201    8.8898   -1.7931 C.ar      1 UNL1        0.0000
     23 C          10.9759    7.8667   -0.8404 C.ar      1 UNL1        0.0000
     24 C          13.0314    3.9783    2.1203 C.ar      1 UNL1        0.0000
     25 C          14.0826    3.0636    2.0862 C.ar      1 UNL1        0.0000
     26 C          13.8580    1.7575    1.6367 C.ar      1 UNL1        0.0000
     27 C          12.1998   -2.7427    0.0467 C.ar      1 UNL1        0.0000
     28 C          11.9793   -4.0633   -0.3596 C.ar      1 UNL1        0.0000
     29 N          13.0938   -4.8500   -0.8871 N.pl3     1 UNL1        1.0000
     30 O          14.0268   -4.2369   -1.4210 O.co2     1 UNL1       -0.5000
     31 O          13.0271   -6.0809   -0.7657 O.co2     1 UNL1       -0.5000
     32 C          10.7127   -4.6530   -0.2595 C.ar      1 UNL1        0.0000
     33 H           8.0134   -2.3777    1.1501 H         1 UNL1        0.0000
     34 H          10.5499   -0.1729    1.6516 H         1 UNL1        0.0000
     35 H          10.5498    1.9907    0.9004 H         1 UNL1        0.0000
     36 H          11.6210    5.8193    0.6145 H         1 UNL1        0.0000
     37 H           7.2618    9.6926    1.1350 H         1 UNL1        0.0000
     38 H           7.1048    7.9163    2.8264 H         1 UNL1        0.0000
     39 H           8.7185    6.0962    2.8724 H         1 UNL1        0.0000
     40 H           8.3410   10.6902   -0.7926 H         1 UNL1        0.0000
     41 H          10.0961   10.6941   -2.5118 H         1 UNL1        0.0000
     42 H          11.7920    8.8872   -2.5585 H         1 UNL1        0.0000
     43 H          11.7320    7.0926   -0.9217 H         1 UNL1        0.0000
     44 H          13.1987    4.9804    2.5063 H         1 UNL1        0.0000
     45 H          15.0747    3.3556    2.4218 H         1 UNL1        0.0000
     46 H          14.6816    1.0471    1.6148 H         1 UNL1        0.0000
     47 H          13.1874   -2.2902   -0.0305 H         1 UNL1        0.0000
     48 H          10.5503   -5.6801   -0.5813 H         1 UNL1        0.0000
@<TRIPOS>BOND
     1    1    2 1
     2    2    3 ar
     3    2   32 ar
     4    3    5 ar
     5    3    4 1
     6    4   33 1
     7    5    6 1
     8    5   27 ar
     9    6    7 2
    10    6   34 1
    11    7    8 1
    12    8    9 ar
    13    8   26 ar
    14    9   10 ar
    15    9   35 1
    16   10   11 1
    17   10   24 ar
    18   11   13 am
    19   11   12 2
    20   13   36 1
    21   13   14 1
    22   14   15 ar
    23   14   19 ar
    24   15   16 ar
    25   15   23 ar
    26   16   17 ar
    27   16   20 ar
    28   17   18 ar
    29   17   37 1
    30   18   19 ar
    31   18   38 1
    32   19   39 1
    33   20   40 1
    34   20   21 ar
    35   21   22 ar
    36   21   41 1
    37   22   23 ar
    38   22   42 1
    39   23   43 1
    40   24   25 ar
    41   24   44 1
    42   25   26 ar
    43   25   45 1
    44   26   46 1
    45   27   47 1
    46   27   28 ar
    47   28   29 1
    48   28   32 ar
    49   29   30 ar
    50   29   31 ar
    51   32   48 1
@<TRIPOS>SUBSTRUCTURE
1 UNL1 1
@<TRIPOS>COMMENT
0.0000



