*****_entry_00001_conf_01
 OpenBabel06232217283D

 44 47  0  0  1  0  0  0  0  0999 V2000
  -21.5826   -0.1204  -24.3327 Br  0  0  0  0  0  0  0  0  0  0  0  0
  -19.7323    0.0320  -23.9664 C   0  0  0  0  0  0  0  0  0  0  0  0
  -18.9538   -1.1233  -23.9077 C   0  0  0  0  0  0  0  0  0  0  0  0
  -17.5878   -0.9547  -23.6508 C   0  0  0  0  0  0  0  0  0  0  0  0
  -16.5773   -1.8655  -23.5675 N   0  0  0  0  0  0  0  0  0  0  0  0
  -16.6401   -2.8719  -23.6677 H   0  0  0  0  0  0  0  0  0  0  0  0
  -15.3693   -1.3299  -23.3743 N   0  0  0  0  0  0  0  0  0  0  0  0
  -15.5961   -0.0153  -23.2254 C   0  0  0  0  0  0  0  0  0  0  0  0
  -14.5177    0.8244  -22.9684 N   0  0  0  0  0  0  0  0  0  0  0  0
  -13.2007    0.4201  -22.7657 C   0  0  0  0  0  0  0  0  0  0  0  0
  -12.7198   -0.6979  -22.8028 O   0  0  0  0  0  0  0  0  0  0  0  0
  -12.3577    1.6682  -22.5991 C   0  0  0  0  0  0  0  0  0  0  0  0
  -13.3838    2.7663  -22.3211 C   0  0  2  0  0  0  0  0  0  0  0  0
  -13.6507    2.9257  -20.8262 C   0  0  0  0  0  0  0  0  0  0  0  0
  -13.1005    2.1988  -19.9936 O   0  0  0  0  0  0  0  0  0  0  0  0
  -14.5102    3.8664  -20.3484 N   0  0  0  0  0  0  0  0  0  0  0  0
  -15.1994    4.7925  -21.0711 C   0  0  0  0  0  0  0  0  0  0  0  0
  -16.1542    5.8578  -20.1468 S   0  0  0  0  0  0  0  0  0  0  0  0
  -16.7391    6.4965  -21.6394 C   0  0  0  0  0  0  0  0  0  0  0  0
  -17.8100    7.5517  -21.7087 C   0  0  0  0  0  0  0  0  0  0  0  0
  -17.3891    8.7421  -22.5711 C   0  0  0  0  0  0  0  0  0  0  0  0
  -19.1479    6.9792  -22.1718 C   0  0  0  0  0  0  0  0  0  0  0  0
  -16.1658    5.9605  -22.6997 N   0  0  0  0  0  0  0  0  0  0  0  0
  -15.2640    4.9713  -22.3655 N   0  0  0  0  0  0  0  0  0  0  0  0
  -14.6061    2.2620  -23.0651 C   0  0  0  0  0  0  0  0  0  0  0  0
  -16.9838    0.2835  -23.4323 C   0  0  0  0  0  0  0  0  0  0  0  0
  -17.8009    1.4300  -23.5136 C   0  0  0  0  0  0  0  0  0  0  0  0
  -19.1712    1.2908  -23.7773 C   0  0  0  0  0  0  0  0  0  0  0  0
  -19.3814   -2.1070  -24.0673 H   0  0  0  0  0  0  0  0  0  0  0  0
  -11.8401    1.8512  -23.5473 H   0  0  0  0  0  0  0  0  0  0  0  0
  -11.6224    1.5306  -21.8021 H   0  0  0  0  0  0  0  0  0  0  0  0
  -13.0161    3.7248  -22.7007 H   0  0  0  0  0  0  0  0  0  0  0  0
  -14.6605    3.8484  -19.3493 H   0  0  0  0  0  0  0  0  0  0  0  0
  -17.9534    7.9291  -20.6877 H   0  0  0  0  0  0  0  0  0  0  0  0
  -17.2937    8.4694  -23.6272 H   0  0  0  0  0  0  0  0  0  0  0  0
  -16.4250    9.1433  -22.2407 H   0  0  0  0  0  0  0  0  0  0  0  0
  -18.1281    9.5474  -22.5041 H   0  0  0  0  0  0  0  0  0  0  0  0
  -19.1024    6.6178  -23.2041 H   0  0  0  0  0  0  0  0  0  0  0  0
  -19.9317    7.7422  -22.1218 H   0  0  0  0  0  0  0  0  0  0  0  0
  -19.4539    6.1415  -21.5366 H   0  0  0  0  0  0  0  0  0  0  0  0
  -14.5599    2.5393  -24.1243 H   0  0  0  0  0  0  0  0  0  0  0  0
  -15.5546    2.5998  -22.6417 H   0  0  0  0  0  0  0  0  0  0  0  0
  -17.3873    2.4273  -23.3943 H   0  0  0  0  0  0  0  0  0  0  0  0
  -19.7848    2.1844  -23.8386 H   0  0  0  0  0  0  0  0  0  0  0  0
  1  2  1  0  0  0  0
  2  3  2  0  0  0  0
  2 28  1  0  0  0  0
  3 29  1  0  0  0  0
  3  4  1  0  0  0  0
  4  5  1  0  0  0  0
  4 26  2  0  0  0  0
  5  6  1  0  0  0  0
  5  7  1  0  0  0  0
  7  8  2  0  0  0  0
  8 26  1  0  0  0  0
  8  9  1  0  0  0  0
  9 25  1  0  0  0  0
  9 10  1  0  0  0  0
 10 12  1  0  0  0  0
 10 11  2  0  0  0  0
 12 13  1  0  0  0  0
 12 31  1  0  0  0  0
 12 30  1  0  0  0  0
 13 14  1  0  0  0  0
 13 25  1  0  0  0  0
 13 32  1  6  0  0  0
 14 16  1  0  0  0  0
 14 15  2  0  0  0  0
 16 17  1  0  0  0  0
 16 33  1  0  0  0  0
 17 18  1  0  0  0  0
 17 24  2  0  0  0  0
 18 19  1  0  0  0  0
 19 23  2  0  0  0  0
 19 20  1  0  0  0  0
 20 21  1  0  0  0  0
 20 22  1  0  0  0  0
 20 34  1  0  0  0  0
 21 37  1  0  0  0  0
 21 35  1  0  0  0  0
 21 36  1  0  0  0  0
 22 38  1  0  0  0  0
 22 39  1  0  0  0  0
 22 40  1  0  0  0  0
 23 24  1  0  0  0  0
 25 42  1  0  0  0  0
 25 41  1  0  0  0  0
 26 27  1  0  0  0  0
 27 28  2  0  0  0  0
 27 43  1  0  0  0  0
 28 44  1  0  0  0  0
M  END
$$$$
