*****_entry_00001_conf_01
 OpenBabel06232217283D

 70 73  0  0  0  0  0  0  0  0999 V2000
  -12.8033    1.6795  -20.7555 O   0  0  0  0  0  0  0  0  0  0  0  0
  -12.9518    2.1049  -21.9006 C   0  0  0  0  0  0  0  0  0  0  0  0
  -13.0811    1.1626  -23.0935 C   0  0  0  0  0  0  0  0  0  0  0  0
  -13.0248   -0.3312  -22.7550 C   0  0  0  0  0  0  0  0  0  0  0  0
  -13.6713   -1.3008  -23.7523 C   0  0  0  0  0  0  0  0  0  0  0  0
  -15.0994   -0.9747  -24.1888 C   0  0  0  0  0  0  0  0  0  0  0  0
  -15.9690   -0.4153  -23.0590 C   0  0  0  0  0  0  0  0  0  0  0  0
  -17.3659   -0.3110  -23.4734 N   0  0  0  0  0  0  0  0  0  0  0  0
  -18.0113   -1.4675  -23.8869 C   0  0  0  0  0  0  0  0  0  0  0  0
  -17.4756   -2.5722  -23.9575 O   0  0  0  0  0  0  0  0  0  0  0  0
  -19.3296   -1.3472  -24.2288 N   0  0  0  0  0  0  0  0  0  0  0  0
  -20.0430   -0.1537  -24.1718 C   0  0  0  0  0  0  0  0  0  0  0  0
  -19.4099    1.0019  -23.7295 C   0  0  0  0  0  0  0  0  0  0  0  0
  -17.9916    0.9255  -23.3287 C   0  0  0  0  0  0  0  0  0  0  0  0
  -17.4402    1.9317  -22.8864 O   0  0  0  0  0  0  0  0  0  0  0  0
  -20.1116    2.2092  -23.6673 C   0  0  0  0  0  0  0  0  0  0  0  0
  -21.4517    2.2536  -24.0603 C   0  0  0  0  0  0  0  0  0  0  0  0
  -22.0935    1.0907  -24.5136 C   0  0  0  0  0  0  0  0  0  0  0  0
  -23.5088    1.0941  -24.9774 C   0  0  0  0  0  0  0  0  0  0  0  0
  -24.2175    2.0856  -24.9593 O   0  0  0  0  0  0  0  0  0  0  0  0
  -23.8790   -0.1484  -25.3736 O   0  0  0  0  0  0  0  0  0  0  0  0
  -25.2268   -0.2453  -25.8383 C   0  0  0  0  0  0  0  0  0  0  0  0
  -21.3839   -0.1198  -24.5595 C   0  0  0  0  0  0  0  0  0  0  0  0
  -13.0309    3.4684  -22.1634 N   0  0  0  0  0  0  0  0  0  0  0  0
  -13.4450    4.0584  -23.4349 C   0  0  0  0  0  0  0  0  0  0  0  0
  -14.9469    4.3800  -23.4050 C   0  0  0  0  0  0  0  0  0  0  0  0
  -15.3215    5.2216  -22.2352 N   0  3  0  0  0  0  0  0  0  0  0  0
  -16.6901    5.5812  -22.1512 C   0  0  0  0  0  0  0  0  0  0  0  0
  -17.7275    4.6347  -22.0795 C   0  0  0  0  0  0  0  0  0  0  0  0
  -19.0712    5.0068  -21.9316 C   0  0  0  0  0  0  0  0  0  0  0  0
  -19.4217    6.3488  -21.8676 C   0  0  0  0  0  0  0  0  0  0  0  0
  -20.6915    6.8237  -21.6944 O   0  0  0  0  0  0  0  0  0  0  0  0
  -21.7008    5.8267  -21.5653 C   0  0  0  0  0  0  0  0  0  0  0  0
  -18.4280    7.3091  -22.0224 C   0  0  0  0  0  0  0  0  0  0  0  0
  -17.0854    6.9295  -22.1659 C   0  0  0  0  0  0  0  0  0  0  0  0
  -14.7538    4.7433  -20.9321 C   0  0  0  0  0  0  0  0  0  0  0  0
  -13.2556    4.3814  -21.0435 C   0  0  0  0  0  0  0  0  0  0  0  0
  -12.2415    1.3634  -23.7690 H   0  0  0  0  0  0  0  0  0  0  0  0
  -14.0093    1.3951  -23.6252 H   0  0  0  0  0  0  0  0  0  0  0  0
  -13.4993   -0.4870  -21.7778 H   0  0  0  0  0  0  0  0  0  0  0  0
  -11.9715   -0.6102  -22.6272 H   0  0  0  0  0  0  0  0  0  0  0  0
  -13.6639   -2.3141  -23.3380 H   0  0  0  0  0  0  0  0  0  0  0  0
  -13.0326   -1.3454  -24.6440 H   0  0  0  0  0  0  0  0  0  0  0  0
  -15.5735   -1.8556  -24.6357 H   0  0  0  0  0  0  0  0  0  0  0  0
  -15.0437   -0.2279  -24.9916 H   0  0  0  0  0  0  0  0  0  0  0  0
  -15.6038    0.5743  -22.7602 H   0  0  0  0  0  0  0  0  0  0  0  0
  -15.9080   -1.0617  -22.1766 H   0  0  0  0  0  0  0  0  0  0  0  0
  -19.7749   -2.2046  -24.5336 H   0  0  0  0  0  0  0  0  0  0  0  0
  -19.6176    3.1151  -23.3219 H   0  0  0  0  0  0  0  0  0  0  0  0
  -21.9803    3.2035  -24.0135 H   0  0  0  0  0  0  0  0  0  0  0  0
  -25.3471   -1.2191  -26.3212 H   0  0  0  0  0  0  0  0  0  0  0  0
  -25.4553    0.5334  -26.5726 H   0  0  0  0  0  0  0  0  0  0  0  0
  -25.9140   -0.1911  -24.9886 H   0  0  0  0  0  0  0  0  0  0  0  0
  -21.8812   -1.0235  -24.9076 H   0  0  0  0  0  0  0  0  0  0  0  0
  -13.2203    3.4025  -24.2780 H   0  0  0  0  0  0  0  0  0  0  0  0
  -12.8639    4.9783  -23.5744 H   0  0  0  0  0  0  0  0  0  0  0  0
  -15.5007    3.4330  -23.3714 H   0  0  0  0  0  0  0  0  0  0  0  0
  -15.1892    4.9057  -24.3365 H   0  0  0  0  0  0  0  0  0  0  0  0
  -17.5272    3.5688  -22.1120 H   0  0  0  0  0  0  0  0  0  0  0  0
  -19.8150    4.2197  -21.8757 H   0  0  0  0  0  0  0  0  0  0  0  0
  -22.6204    6.3202  -21.2372 H   0  0  0  0  0  0  0  0  0  0  0  0
  -21.4327    5.0824  -20.8064 H   0  0  0  0  0  0  0  0  0  0  0  0
  -21.9065    5.3478  -22.5279 H   0  0  0  0  0  0  0  0  0  0  0  0
  -18.6909    8.3637  -22.0189 H   0  0  0  0  0  0  0  0  0  0  0  0
  -16.3540    7.7206  -22.3020 H   0  0  0  0  0  0  0  0  0  0  0  0
  -15.3153    3.8604  -20.6004 H   0  0  0  0  0  0  0  0  0  0  0  0
  -14.8353    5.5131  -20.1578 H   0  0  0  0  0  0  0  0  0  0  0  0
  -12.9081    3.9477  -20.1001 H   0  0  0  0  0  0  0  0  0  0  0  0
  -12.6621    5.2848  -21.2283 H   0  0  0  0  0  0  0  0  0  0  0  0
  -14.8064    6.1541  -22.4124 H   0  0  0  0  0  0  0  0  0  0  0  0
  1  2  2  0  0  0  0
  2 24  1  0  0  0  0
  2  3  1  0  0  0  0
  3  4  1  0  0  0  0
  3 38  1  0  0  0  0
  3 39  1  0  0  0  0
  4  5  1  0  0  0  0
  4 41  1  0  0  0  0
  4 40  1  0  0  0  0
  5  6  1  0  0  0  0
  5 42  1  0  0  0  0
  5 43  1  0  0  0  0
  6  7  1  0  0  0  0
  6 45  1  0  0  0  0
  6 44  1  0  0  0  0
  7  8  1  0  0  0  0
  7 46  1  0  0  0  0
  7 47  1  0  0  0  0
  8  9  1  0  0  0  0
  8 14  1  0  0  0  0
  9 10  2  0  0  0  0
  9 11  1  0  0  0  0
 11 12  1  0  0  0  0
 11 48  1  0  0  0  0
 12 13  2  0  0  0  0
 12 23  1  0  0  0  0
 13 16  1  0  0  0  0
 13 14  1  0  0  0  0
 14 15  2  0  0  0  0
 16 17  2  0  0  0  0
 16 49  1  0  0  0  0
 17 18  1  0  0  0  0
 17 50  1  0  0  0  0
 18 19  1  0  0  0  0
 18 23  2  0  0  0  0
 19 21  1  0  0  0  0
 19 20  2  0  0  0  0
 21 22  1  0  0  0  0
 22 51  1  0  0  0  0
 22 52  1  0  0  0  0
 22 53  1  0  0  0  0
 23 54  1  0  0  0  0
 24 25  1  0  0  0  0
 24 37  1  0  0  0  0
 25 55  1  0  0  0  0
 25 56  1  0  0  0  0
 25 26  1  0  0  0  0
 26 27  1  0  0  0  0
 26 57  1  0  0  0  0
 26 58  1  0  0  0  0
 27 36  1  0  0  0  0
 27 28  1  0  0  0  0
 27 70  1  0  0  0  0
 28 29  2  0  0  0  0
 28 35  1  0  0  0  0
 29 59  1  0  0  0  0
 29 30  1  0  0  0  0
 30 31  2  0  0  0  0
 30 60  1  0  0  0  0
 31 32  1  0  0  0  0
 31 34  1  0  0  0  0
 32 33  1  0  0  0  0
 33 61  1  0  0  0  0
 33 62  1  0  0  0  0
 33 63  1  0  0  0  0
 34 35  2  0  0  0  0
 34 64  1  0  0  0  0
 35 65  1  0  0  0  0
 36 37  1  0  0  0  0
 36 66  1  0  0  0  0
 36 67  1  0  0  0  0
 37 68  1  0  0  0  0
 37 69  1  0  0  0  0
M  CHG  1  27   1
M  END
$$$$
