*****_entry_00001_conf_01
 OpenBabel06232217283D

 53 56  0  0  0  0  0  0  0  0999 V2000
  -15.3131    9.4024  -19.4340 Cl  0  0  0  0  0  0  0  0  0  0  0  0
  -15.2053    7.7561  -19.9166 C   0  0  0  0  0  0  0  0  0  0  0  0
  -16.1626    7.2140  -20.7641 C   0  0  0  0  0  0  0  0  0  0  0  0
  -16.0676    5.8727  -21.1633 C   0  0  0  0  0  0  0  0  0  0  0  0
  -15.0128    5.0480  -20.7337 C   0  0  0  0  0  0  0  0  0  0  0  0
  -14.8730    3.6719  -21.1810 N   0  0  0  0  0  0  0  0  0  0  0  0
  -16.0353    2.8795  -21.3499 C   0  0  0  0  0  0  0  0  0  0  0  0
  -17.1946    3.2332  -21.1217 O   0  0  0  0  0  0  0  0  0  0  0  0
  -15.8729    1.6141  -21.8661 N   0  0  0  0  0  0  0  0  0  0  0  0
  -14.6634    1.1259  -22.2645 C   0  0  0  0  0  0  0  0  0  0  0  0
  -14.3228   -0.0892  -22.9095 C   0  0  0  0  0  0  0  0  0  0  0  0
  -15.2542   -1.1343  -23.3267 C   0  0  0  0  0  0  0  0  0  0  0  0
  -14.8578   -2.2497  -23.6554 O   0  0  0  0  0  0  0  0  0  0  0  0
  -16.5890   -0.7936  -23.2943 N   0  0  0  0  0  0  0  0  0  0  0  0
  -17.6286   -1.7616  -23.5835 C   0  0  0  0  0  0  0  0  0  0  0  0
  -18.8327   -1.0976  -24.2480 C   0  0  0  0  0  0  0  0  0  0  0  0
  -19.4193    0.0211  -23.3926 C   0  0  0  0  0  0  0  0  0  0  0  0
  -20.6102    0.6390  -23.9513 N   0  0  0  0  0  0  0  0  0  0  0  0
  -20.9413    1.9641  -23.6732 C   0  0  0  0  0  0  0  0  0  0  0  0
  -20.2215    2.7990  -23.1498 O   0  0  0  0  0  0  0  0  0  0  0  0
  -22.3845    2.1786  -24.0615 C   0  0  0  0  0  0  0  0  0  0  0  0
  -22.7169    0.9336  -24.8722 C   0  0  0  0  0  0  0  0  0  0  0  0
  -21.7889   -0.1193  -24.3019 C   0  0  0  0  0  0  0  0  0  0  0  0
  -12.9420   -0.0363  -23.0638 C   0  0  0  0  0  0  0  0  0  0  0  0
  -12.4832    1.1559  -22.5444 N   0  0  0  0  0  0  0  0  0  0  0  0
  -11.1003    1.5830  -22.5452 C   0  0  0  0  0  0  0  0  0  0  0  0
  -13.5438    1.8763  -22.0600 C   0  0  0  0  0  0  0  0  0  0  0  0
  -13.5693    3.1739  -21.4389 C   0  0  0  0  0  0  0  0  0  0  0  0
  -12.5202    3.7423  -21.1425 O   0  0  0  0  0  0  0  0  0  0  0  0
  -14.0633    5.6294  -19.8705 C   0  0  0  0  0  0  0  0  0  0  0  0
  -14.1574    6.9668  -19.4628 C   0  0  0  0  0  0  0  0  0  0  0  0
  -16.9885    7.8222  -21.1240 H   0  0  0  0  0  0  0  0  0  0  0  0
  -16.8618    5.4946  -21.8024 H   0  0  0  0  0  0  0  0  0  0  0  0
  -16.7065    1.0546  -22.0249 H   0  0  0  0  0  0  0  0  0  0  0  0
  -16.8603    0.1134  -22.9460 H   0  0  0  0  0  0  0  0  0  0  0  0
  -17.9160   -2.2536  -22.6483 H   0  0  0  0  0  0  0  0  0  0  0  0
  -17.1923   -2.5166  -24.2457 H   0  0  0  0  0  0  0  0  0  0  0  0
  -19.6086   -1.8541  -24.4213 H   0  0  0  0  0  0  0  0  0  0  0  0
  -18.5585   -0.7145  -25.2379 H   0  0  0  0  0  0  0  0  0  0  0  0
  -18.6635    0.7970  -23.2236 H   0  0  0  0  0  0  0  0  0  0  0  0
  -19.6948   -0.3722  -22.4068 H   0  0  0  0  0  0  0  0  0  0  0  0
  -22.5007    3.0903  -24.6521 H   0  0  0  0  0  0  0  0  0  0  0  0
  -22.9895    2.2350  -23.1514 H   0  0  0  0  0  0  0  0  0  0  0  0
  -22.4761    1.1101  -25.9280 H   0  0  0  0  0  0  0  0  0  0  0  0
  -23.7715    0.6513  -24.8094 H   0  0  0  0  0  0  0  0  0  0  0  0
  -21.5586   -0.8975  -25.0330 H   0  0  0  0  0  0  0  0  0  0  0  0
  -22.2005   -0.5676  -23.3912 H   0  0  0  0  0  0  0  0  0  0  0  0
  -12.2436   -0.7372  -23.5013 H   0  0  0  0  0  0  0  0  0  0  0  0
  -10.4893    0.8351  -23.0572 H   0  0  0  0  0  0  0  0  0  0  0  0
  -10.7687    1.6844  -21.5092 H   0  0  0  0  0  0  0  0  0  0  0  0
  -11.0314    2.5356  -23.0767 H   0  0  0  0  0  0  0  0  0  0  0  0
  -13.1992    5.0707  -19.5183 H   0  0  0  0  0  0  0  0  0  0  0  0
  -13.4006    7.3802  -18.8012 H   0  0  0  0  0  0  0  0  0  0  0  0
  1  2  1  0  0  0  0
  2  3  2  0  0  0  0
  2 31  1  0  0  0  0
  3 32  1  0  0  0  0
  3  4  1  0  0  0  0
  4  5  2  0  0  0  0
  4 33  1  0  0  0  0
  5  6  1  0  0  0  0
  5 30  1  0  0  0  0
  6  7  1  0  0  0  0
  6 28  1  0  0  0  0
  7  8  2  0  0  0  0
  7  9  1  0  0  0  0
  9 10  1  0  0  0  0
  9 34  1  0  0  0  0
 10 11  1  0  0  0  0
 10 27  2  0  0  0  0
 11 12  1  0  0  0  0
 11 24  2  0  0  0  0
 12 13  2  0  0  0  0
 12 14  1  0  0  0  0
 14 15  1  0  0  0  0
 14 35  1  0  0  0  0
 15 36  1  0  0  0  0
 15 37  1  0  0  0  0
 15 16  1  0  0  0  0
 16 38  1  0  0  0  0
 16 17  1  0  0  0  0
 16 39  1  0  0  0  0
 17 40  1  0  0  0  0
 17 18  1  0  0  0  0
 17 41  1  0  0  0  0
 18 23  1  0  0  0  0
 18 19  1  0  0  0  0
 19 20  2  0  0  0  0
 19 21  1  0  0  0  0
 21 43  1  0  0  0  0
 21 22  1  0  0  0  0
 21 42  1  0  0  0  0
 22 23  1  0  0  0  0
 22 44  1  0  0  0  0
 22 45  1  0  0  0  0
 23 47  1  0  0  0  0
 23 46  1  0  0  0  0
 24 25  1  0  0  0  0
 24 48  1  0  0  0  0
 25 27  1  0  0  0  0
 25 26  1  0  0  0  0
 26 49  1  0  0  0  0
 26 50  1  0  0  0  0
 26 51  1  0  0  0  0
 27 28  1  0  0  0  0
 28 29  2  0  0  0  0
 30 31  2  0  0  0  0
 30 52  1  0  0  0  0
 31 53  1  0  0  0  0
M  END
$$$$
