*****_entry_00001_conf_01
 OpenBabel06232217283D

 58 61  0  0  1  0  0  0  0  0999 V2000
  -14.2714   11.0610  -21.0344 Cl  0  0  0  0  0  0  0  0  0  0  0  0
  -15.5640   10.8708  -22.1687 C   0  0  0  0  0  0  0  0  0  0  0  0
  -16.3770    9.7225  -22.1954 C   0  0  0  0  0  0  0  0  0  0  0  0
  -16.1657    8.5765  -21.2196 C   0  0  0  0  0  0  0  0  0  0  0  0
  -15.8013    7.2731  -21.8222 N   0  3  1  0  0  0  0  0  0  0  0  0
  -15.4425    6.3060  -20.7573 C   0  0  0  0  0  0  0  0  0  0  0  0
  -16.6416    5.7429  -19.9431 C   0  0  0  0  0  0  0  0  0  0  0  0
  -17.7495    5.1930  -20.7556 N   0  3  2  0  0  0  0  0  0  0  0  0
  -17.3834    3.8531  -21.2744 C   0  0  0  0  0  0  0  0  0  0  0  0
  -18.4648    3.2126  -22.1481 C   0  0  0  0  0  0  0  0  0  0  0  0
  -19.6279    3.6234  -22.1431 O   0  0  0  0  0  0  0  0  0  0  0  0
  -18.1205    2.1654  -22.9692 N   0  0  0  0  0  0  0  0  0  0  0  0
  -16.9134    1.5452  -22.9150 N   0  0  0  0  0  0  0  0  0  0  0  0
  -16.9043    0.3263  -23.3634 C   0  0  0  0  0  0  0  0  0  0  0  0
  -15.6956   -0.5307  -23.2801 C   0  0  0  0  0  0  0  0  0  0  0  0
  -15.8095   -1.9082  -23.5384 C   0  0  0  0  0  0  0  0  0  0  0  0
  -16.9884   -2.5450  -23.8249 O   0  0  0  0  0  0  0  0  0  0  0  0
  -14.6845   -2.7215  -23.5380 C   0  0  0  0  0  0  0  0  0  0  0  0
  -13.4298   -2.1699  -23.2973 C   0  0  0  0  0  0  0  0  0  0  0  0
  -13.2807   -0.8010  -23.0338 C   0  0  0  0  0  0  0  0  0  0  0  0
  -14.4175    0.0506  -23.0041 C   0  0  0  0  0  0  0  0  0  0  0  0
  -14.1803    1.4187  -22.6996 C   0  0  0  0  0  0  0  0  0  0  0  0
  -12.8951    1.9181  -22.4671 C   0  0  0  0  0  0  0  0  0  0  0  0
  -11.8018    1.0686  -22.5266 C   0  0  0  0  0  0  0  0  0  0  0  0
  -11.9953   -0.2820  -22.8034 C   0  0  0  0  0  0  0  0  0  0  0  0
  -18.0956    6.1566  -21.8194 C   0  0  0  0  0  0  0  0  0  0  0  0
  -16.8944    6.6879  -22.6322 C   0  0  0  0  0  0  0  0  0  0  0  0
  -17.3504    9.6320  -23.2089 C   0  0  0  0  0  0  0  0  0  0  0  0
  -17.5512   10.6761  -24.1155 C   0  0  0  0  0  0  0  0  0  0  0  0
  -16.7618   11.8197  -24.0481 C   0  0  0  0  0  0  0  0  0  0  0  0
  -15.7625   11.9125  -23.0822 C   0  0  0  0  0  0  0  0  0  0  0  0
  -17.0517    8.4510  -20.5922 H   0  0  0  0  0  0  0  0  0  0  0  0
  -15.3484    8.8969  -20.5593 H   0  0  0  0  0  0  0  0  0  0  0  0
  -14.7150    6.7548  -20.0693 H   0  0  0  0  0  0  0  0  0  0  0  0
  -14.9092    5.4713  -21.2298 H   0  0  0  0  0  0  0  0  0  0  0  0
  -17.0517    6.5422  -19.3134 H   0  0  0  0  0  0  0  0  0  0  0  0
  -16.2767    4.9843  -19.2391 H   0  0  0  0  0  0  0  0  0  0  0  0
  -17.1975    3.1705  -20.4359 H   0  0  0  0  0  0  0  0  0  0  0  0
  -16.4637    3.8834  -21.8699 H   0  0  0  0  0  0  0  0  0  0  0  0
  -18.8838    1.7614  -23.5011 H   0  0  0  0  0  0  0  0  0  0  0  0
  -17.8215   -0.1082  -23.7889 H   0  0  0  0  0  0  0  0  0  0  0  0
  -17.6094   -1.9041  -24.2421 H   0  0  0  0  0  0  0  0  0  0  0  0
  -14.7835   -3.7843  -23.7431 H   0  0  0  0  0  0  0  0  0  0  0  0
  -12.5621   -2.8269  -23.3193 H   0  0  0  0  0  0  0  0  0  0  0  0
  -14.9943    2.1334  -22.6245 H   0  0  0  0  0  0  0  0  0  0  0  0
  -12.7535    2.9719  -22.2394 H   0  0  0  0  0  0  0  0  0  0  0  0
  -10.7997    1.4520  -22.3528 H   0  0  0  0  0  0  0  0  0  0  0  0
  -11.1238   -0.9336  -22.8394 H   0  0  0  0  0  0  0  0  0  0  0  0
  -18.6078    7.0046  -21.3469 H   0  0  0  0  0  0  0  0  0  0  0  0
  -18.8405    5.7378  -22.5051 H   0  0  0  0  0  0  0  0  0  0  0  0
  -17.2584    7.4015  -23.3792 H   0  0  0  0  0  0  0  0  0  0  0  0
  -16.4695    5.8630  -23.2191 H   0  0  0  0  0  0  0  0  0  0  0  0
  -17.9740    8.7422  -23.2857 H   0  0  0  0  0  0  0  0  0  0  0  0
  -18.3252   10.5926  -24.8744 H   0  0  0  0  0  0  0  0  0  0  0  0
  -16.9162   12.6331  -24.7522 H   0  0  0  0  0  0  0  0  0  0  0  0
  -15.1347   12.7995  -23.0470 H   0  0  0  0  0  0  0  0  0  0  0  0
  -14.9410    7.4175  -22.4590 H   0  0  0  0  0  0  0  0  0  0  0  0
  -18.6104    5.0787  -20.1136 H   0  0  0  0  0  0  0  0  0  0  0  0
  1  2  1  0  0  0  0
  2  3  2  0  0  0  0
  2 31  1  0  0  0  0
  3  4  1  0  0  0  0
  3 28  1  0  0  0  0
  4  5  1  0  0  0  0
  4 32  1  0  0  0  0
  4 33  1  0  0  0  0
  5 27  1  0  0  0  0
  5  6  1  0  0  0  0
  5 57  1  6  0  0  0
  6  7  1  0  0  0  0
  6 34  1  0  0  0  0
  6 35  1  0  0  0  0
  7  8  1  0  0  0  0
  7 36  1  0  0  0  0
  7 37  1  0  0  0  0
  8 26  1  0  0  0  0
  8  9  1  0  0  0  0
  8 58  1  1  0  0  0
  9 39  1  0  0  0  0
  9 10  1  0  0  0  0
  9 38  1  0  0  0  0
 10 12  1  0  0  0  0
 10 11  2  0  0  0  0
 12 13  1  0  0  0  0
 12 40  1  0  0  0  0
 13 14  2  0  0  0  0
 14 15  1  0  0  0  0
 14 41  1  0  0  0  0
 15 16  2  0  0  0  0
 15 21  1  0  0  0  0
 16 17  1  0  0  0  0
 16 18  1  0  0  0  0
 17 42  1  0  0  0  0
 18 19  2  0  0  0  0
 18 43  1  0  0  0  0
 19 44  1  0  0  0  0
 19 20  1  0  0  0  0
 20 21  2  0  0  0  0
 20 25  1  0  0  0  0
 21 22  1  0  0  0  0
 22 23  2  0  0  0  0
 22 45  1  0  0  0  0
 23 24  1  0  0  0  0
 23 46  1  0  0  0  0
 24 25  2  0  0  0  0
 24 47  1  0  0  0  0
 25 48  1  0  0  0  0
 26 27  1  0  0  0  0
 26 49  1  0  0  0  0
 26 50  1  0  0  0  0
 27 51  1  0  0  0  0
 27 52  1  0  0  0  0
 28 29  2  0  0  0  0
 28 53  1  0  0  0  0
 29 54  1  0  0  0  0
 29 30  1  0  0  0  0
 30 31  2  0  0  0  0
 30 55  1  0  0  0  0
 31 56  1  0  0  0  0
M  CHG  2   5   1   8   1
M  END
$$$$
