*****_entry_00001_conf_01
 OpenBabel06232217283D

 50 53  0  0  1  0  0  0  0  0999 V2000
  -11.6619    1.0042  -23.0246 Cl  0  0  0  0  0  0  0  0  0  0  0  0
  -13.1212    0.0926  -23.0280 C   0  0  0  0  0  0  0  0  0  0  0  0
  -14.3485    0.7504  -22.9894 C   0  0  0  0  0  0  0  0  0  0  0  0
  -15.5334    0.0105  -22.9872 C   0  0  0  0  0  0  0  0  0  0  0  0
  -15.4963   -1.3921  -23.0171 C   0  0  0  0  0  0  0  0  0  0  0  0
  -16.7746   -2.1938  -23.0034 C   0  0  0  0  0  0  0  0  0  0  0  0
  -17.7526   -1.9294  -24.5116 S   0  0  0  0  0  0  0  0  0  0  0  0
  -18.7161   -0.5796  -24.0024 C   0  0  0  0  0  0  0  0  0  0  0  0
  -18.2067    0.5454  -23.6324 N   0  0  0  0  0  0  0  0  0  0  0  0
  -19.0887    1.5185  -23.2693 C   0  0  0  0  0  0  0  0  0  0  0  0
  -18.5274    2.7051  -22.9162 N   0  0  0  0  0  0  0  0  0  0  0  0
  -19.1939    3.7950  -22.4284 C   0  0  0  0  0  0  0  0  0  0  0  0
  -18.5938    4.8287  -22.1431 O   0  0  0  0  0  0  0  0  0  0  0  0
  -20.6637    3.6058  -22.1132 C   0  0  0  0  0  0  0  0  0  0  0  0
  -21.3416    2.5235  -22.9564 C   0  0  1  0  0  0  0  0  0  0  0  0
  -21.7840    3.1059  -24.3015 C   0  0  0  0  0  0  0  0  0  0  0  0
  -21.7289    2.4298  -25.3247 O   0  0  0  0  0  0  0  0  0  0  0  0
  -22.2635    4.4014  -24.2057 N   0  0  0  0  0  0  0  0  0  0  0  0
  -22.7596    5.2016  -25.2564 C   0  0  0  0  0  0  0  0  0  0  0  0
  -23.0186    6.5671  -25.1373 C   0  0  0  0  0  0  0  0  0  0  0  0
  -23.5283    7.2921  -26.2195 C   0  0  0  0  0  0  0  0  0  0  0  0
  -23.8079    6.6586  -27.4334 C   0  0  0  0  0  0  0  0  0  0  0  0
  -24.3573    7.4471  -28.5842 C   0  0  0  0  0  0  0  0  0  0  0  0
  -23.5228    5.2966  -27.5639 C   0  0  0  0  0  0  0  0  0  0  0  0
  -22.9968    4.5762  -26.4856 C   0  0  0  0  0  0  0  0  0  0  0  0
  -20.4198    1.3908  -23.2727 C   0  0  0  0  0  0  0  0  0  0  0  0
  -20.9722    0.0857  -23.6704 C   0  0  0  0  0  0  0  0  0  0  0  0
  -22.1812   -0.1240  -23.6666 O   0  0  0  0  0  0  0  0  0  0  0  0
  -20.0491   -0.8458  -24.0328 N   0  0  0  0  0  0  0  0  0  0  0  0
  -14.2518   -2.0392  -23.0670 C   0  0  0  0  0  0  0  0  0  0  0  0
  -13.0676   -1.2987  -23.0695 C   0  0  0  0  0  0  0  0  0  0  0  0
  -14.3904    1.8359  -22.9599 H   0  0  0  0  0  0  0  0  0  0  0  0
  -16.4862    0.5357  -22.9583 H   0  0  0  0  0  0  0  0  0  0  0  0
  -17.3689   -1.9155  -22.1251 H   0  0  0  0  0  0  0  0  0  0  0  0
  -16.5295   -3.2575  -22.9024 H   0  0  0  0  0  0  0  0  0  0  0  0
  -17.5276    2.8046  -23.0356 H   0  0  0  0  0  0  0  0  0  0  0  0
  -21.1722    4.5697  -22.2317 H   0  0  0  0  0  0  0  0  0  0  0  0
  -20.7187    3.3281  -21.0528 H   0  0  0  0  0  0  0  0  0  0  0  0
  -22.2225    2.1762  -22.4025 H   0  0  0  0  0  0  0  0  0  0  0  0
  -22.2593    4.8337  -23.2858 H   0  0  0  0  0  0  0  0  0  0  0  0
  -22.8194    7.1099  -24.2188 H   0  0  0  0  0  0  0  0  0  0  0  0
  -23.7102    8.3581  -26.0998 H   0  0  0  0  0  0  0  0  0  0  0  0
  -25.0981    8.1734  -28.2327 H   0  0  0  0  0  0  0  0  0  0  0  0
  -24.8598    6.7951  -29.3062 H   0  0  0  0  0  0  0  0  0  0  0  0
  -23.5495    7.9803  -29.0947 H   0  0  0  0  0  0  0  0  0  0  0  0
  -23.7165    4.7826  -28.5027 H   0  0  0  0  0  0  0  0  0  0  0  0
  -22.8004    3.5153  -26.6176 H   0  0  0  0  0  0  0  0  0  0  0  0
  -20.3682   -1.7569  -24.3259 H   0  0  0  0  0  0  0  0  0  0  0  0
  -14.1979   -3.1256  -23.1011 H   0  0  0  0  0  0  0  0  0  0  0  0
  -12.1105   -1.8121  -23.1027 H   0  0  0  0  0  0  0  0  0  0  0  0
  1  2  1  0  0  0  0
  2  3  2  0  0  0  0
  2 31  1  0  0  0  0
  3 32  1  0  0  0  0
  3  4  1  0  0  0  0
  4 33  1  0  0  0  0
  4  5  2  0  0  0  0
  5  6  1  0  0  0  0
  5 30  1  0  0  0  0
  6 34  1  0  0  0  0
  6 35  1  0  0  0  0
  6  7  1  0  0  0  0
  7  8  1  0  0  0  0
  8  9  2  0  0  0  0
  8 29  1  0  0  0  0
  9 10  1  0  0  0  0
 10 11  1  0  0  0  0
 10 26  2  0  0  0  0
 11 12  1  0  0  0  0
 11 36  1  0  0  0  0
 12 13  2  0  0  0  0
 12 14  1  0  0  0  0
 14 37  1  0  0  0  0
 14 38  1  0  0  0  0
 14 15  1  0  0  0  0
 15 26  1  0  0  0  0
 15 16  1  0  0  0  0
 15 39  1  1  0  0  0
 16 18  1  0  0  0  0
 16 17  2  0  0  0  0
 18 40  1  0  0  0  0
 18 19  1  0  0  0  0
 19 25  2  0  0  0  0
 19 20  1  0  0  0  0
 20 21  2  0  0  0  0
 20 41  1  0  0  0  0
 21 42  1  0  0  0  0
 21 22  1  0  0  0  0
 22 23  1  0  0  0  0
 22 24  2  0  0  0  0
 23 43  1  0  0  0  0
 23 44  1  0  0  0  0
 23 45  1  0  0  0  0
 24 25  1  0  0  0  0
 24 46  1  0  0  0  0
 25 47  1  0  0  0  0
 26 27  1  0  0  0  0
 27 29  1  0  0  0  0
 27 28  2  0  0  0  0
 29 48  1  0  0  0  0
 30 31  2  0  0  0  0
 30 49  1  0  0  0  0
 31 50  1  0  0  0  0
M  END
$$$$
