*****_entry_00001_conf_01
 OpenBabel06232217283D

 55 58  0  0  1  0  0  0  0  0999 V2000
  -13.3275    7.0189  -18.9719 S   0  0  0  0  0  0  0  0  0  0  0  0
  -11.5994    6.7923  -19.4795 C   0  0  0  0  0  0  0  0  0  0  0  0
  -10.9014    8.1191  -19.7498 C   0  0  0  0  0  0  0  0  0  0  0  0
   -9.8554    8.3914  -19.1653 O   0  0  0  0  0  0  0  0  0  0  0  0
  -11.5919    8.9578  -20.6079 N   0  0  0  0  0  0  0  0  0  0  0  0
  -11.2852   10.2887  -20.9552 C   0  0  0  0  0  0  0  0  0  0  0  0
  -12.1866   11.1648  -21.5657 C   0  0  0  0  0  0  0  0  0  0  0  0
  -11.8011   12.4725  -21.9139 C   0  0  0  0  0  0  0  0  0  0  0  0
  -12.7651   13.4142  -22.5929 C   0  0  0  0  0  0  0  0  0  0  0  0
  -12.3283   13.8885  -23.7915 F   0  0  0  0  0  0  0  0  0  0  0  0
  -13.9724   12.8322  -22.8408 F   0  0  0  0  0  0  0  0  0  0  0  0
  -13.0341   14.5130  -21.8329 F   0  0  0  0  0  0  0  0  0  0  0  0
  -10.4920   12.8946  -21.6396 C   0  0  0  0  0  0  0  0  0  0  0  0
   -9.5891   12.0297  -21.0266 C   0  0  0  0  0  0  0  0  0  0  0  0
   -9.9847   10.7341  -20.6878 C   0  0  0  0  0  0  0  0  0  0  0  0
  -14.0219    5.7262  -19.8946 C   0  0  0  0  0  0  0  0  0  0  0  0
  -15.1099    5.8760  -20.5700 N   0  0  0  0  0  0  0  0  0  0  0  0
  -15.5175    4.7875  -21.3133 C   0  0  0  0  0  0  0  0  0  0  0  0
  -14.8785    3.6060  -21.3441 C   0  0  0  0  0  0  0  0  0  0  0  0
  -13.6648    3.4637  -20.5143 C   0  0  0  0  0  0  0  0  0  0  0  0
  -13.0206    2.4255  -20.4583 O   0  0  0  0  0  0  0  0  0  0  0  0
  -13.2935    4.5854  -19.8373 N   0  0  0  0  0  0  0  0  0  0  0  0
  -15.2665    2.4444  -22.2121 C   0  0  0  0  0  0  0  0  0  0  0  0
  -16.5429    2.6144  -22.9444 N   0  3  2  0  0  0  0  0  0  0  0  0
  -16.6063    1.7154  -24.1152 C   0  0  0  0  0  0  0  0  0  0  0  0
  -16.5661    0.2394  -23.7831 C   0  0  0  0  0  0  0  0  0  0  0  0
  -17.7130   -0.5553  -23.9165 C   0  0  0  0  0  0  0  0  0  0  0  0
  -17.6611   -1.9246  -23.6480 C   0  0  0  0  0  0  0  0  0  0  0  0
  -16.4645   -2.5127  -23.2413 C   0  0  0  0  0  0  0  0  0  0  0  0
  -15.3194   -1.7323  -23.0980 C   0  0  0  0  0  0  0  0  0  0  0  0
  -15.3688   -0.3635  -23.3673 C   0  0  0  0  0  0  0  0  0  0  0  0
  -16.7162    4.0080  -23.3906 C   0  0  0  0  0  0  0  0  0  0  0  0
  -16.7111    4.9921  -22.2103 C   0  0  0  0  0  0  0  0  0  0  0  0
  -11.5861    6.2056  -20.4040 H   0  0  0  0  0  0  0  0  0  0  0  0
  -11.0374    6.2567  -18.7087 H   0  0  0  0  0  0  0  0  0  0  0  0
  -12.3868    8.5385  -21.0802 H   0  0  0  0  0  0  0  0  0  0  0  0
  -13.2025   10.8525  -21.7946 H   0  0  0  0  0  0  0  0  0  0  0  0
  -10.1744   13.9015  -21.9077 H   0  0  0  0  0  0  0  0  0  0  0  0
   -8.5752   12.3618  -20.8161 H   0  0  0  0  0  0  0  0  0  0  0  0
   -9.2582   10.0789  -20.2133 H   0  0  0  0  0  0  0  0  0  0  0  0
  -12.4537    4.5450  -19.2825 H   0  0  0  0  0  0  0  0  0  0  0  0
  -15.3544    1.5519  -21.5805 H   0  0  0  0  0  0  0  0  0  0  0  0
  -14.4421    2.2763  -22.9179 H   0  0  0  0  0  0  0  0  0  0  0  0
  -15.8018    1.9566  -24.8238 H   0  0  0  0  0  0  0  0  0  0  0  0
  -17.5456    1.8881  -24.6581 H   0  0  0  0  0  0  0  0  0  0  0  0
  -18.6518   -0.1054  -24.2321 H   0  0  0  0  0  0  0  0  0  0  0  0
  -18.5549   -2.5329  -23.7576 H   0  0  0  0  0  0  0  0  0  0  0  0
  -16.4248   -3.5789  -23.0348 H   0  0  0  0  0  0  0  0  0  0  0  0
  -14.3866   -2.1900  -22.7785 H   0  0  0  0  0  0  0  0  0  0  0  0
  -14.4635    0.2283  -23.2536 H   0  0  0  0  0  0  0  0  0  0  0  0
  -17.6737    4.1154  -23.9152 H   0  0  0  0  0  0  0  0  0  0  0  0
  -15.9260    4.2857  -24.1023 H   0  0  0  0  0  0  0  0  0  0  0  0
  -17.6273    4.8762  -21.6183 H   0  0  0  0  0  0  0  0  0  0  0  0
  -16.7092    6.0127  -22.6121 H   0  0  0  0  0  0  0  0  0  0  0  0
  -17.3546    2.3646  -22.2772 H   0  0  0  0  0  0  0  0  0  0  0  0
  1 16  1  0  0  0  0
  1  2  1  0  0  0  0
  2  3  1  0  0  0  0
  2 34  1  0  0  0  0
  2 35  1  0  0  0  0
  3  4  2  0  0  0  0
  3  5  1  0  0  0  0
  5  6  1  0  0  0  0
  5 36  1  0  0  0  0
  6  7  2  0  0  0  0
  6 15  1  0  0  0  0
  7 37  1  0  0  0  0
  7  8  1  0  0  0  0
  8  9  1  0  0  0  0
  8 13  2  0  0  0  0
  9 10  1  0  0  0  0
  9 11  1  0  0  0  0
  9 12  1  0  0  0  0
 13 38  1  0  0  0  0
 13 14  1  0  0  0  0
 14 15  2  0  0  0  0
 14 39  1  0  0  0  0
 15 40  1  0  0  0  0
 16 17  2  0  0  0  0
 16 22  1  0  0  0  0
 17 18  1  0  0  0  0
 18 19  2  0  0  0  0
 18 33  1  0  0  0  0
 19 20  1  0  0  0  0
 19 23  1  0  0  0  0
 20 21  2  0  0  0  0
 20 22  1  0  0  0  0
 22 41  1  0  0  0  0
 23 42  1  0  0  0  0
 23 43  1  0  0  0  0
 23 24  1  0  0  0  0
 24 25  1  0  0  0  0
 24 32  1  0  0  0  0
 24 55  1  1  0  0  0
 25 44  1  0  0  0  0
 25 26  1  0  0  0  0
 25 45  1  0  0  0  0
 26 31  2  0  0  0  0
 26 27  1  0  0  0  0
 27 28  2  0  0  0  0
 27 46  1  0  0  0  0
 28 29  1  0  0  0  0
 28 47  1  0  0  0  0
 29 30  2  0  0  0  0
 29 48  1  0  0  0  0
 30 31  1  0  0  0  0
 30 49  1  0  0  0  0
 31 50  1  0  0  0  0
 32 33  1  0  0  0  0
 32 51  1  0  0  0  0
 32 52  1  0  0  0  0
 33 53  1  0  0  0  0
 33 54  1  0  0  0  0
M  CHG  1  24   1
M  END
$$$$
