*****_entry_00001_conf_01
 OpenBabel06232217283D

 48 52  0  0  0  0  0  0  0  0999 V2000
  -21.3958   -0.3792  -24.5742 Cl  0  0  0  0  0  0  0  0  0  0  0  0
  -19.7484   -0.1804  -24.1088 C   0  0  0  0  0  0  0  0  0  0  0  0
  -19.3327    1.0494  -23.5831 C   0  0  0  0  0  0  0  0  0  0  0  0
  -17.9877    1.1756  -23.2162 C   0  0  0  0  0  0  0  0  0  0  0  0
  -17.2956    2.2340  -22.6866 N   0  0  0  0  0  0  0  0  0  0  0  0
  -16.0638    1.7726  -22.5491 C   0  0  0  0  0  0  0  0  0  0  0  0
  -14.8802    2.4622  -22.0404 C   0  0  0  0  0  0  0  0  0  0  0  0
  -14.9515    3.7347  -21.4471 C   0  0  0  0  0  0  0  0  0  0  0  0
  -13.8080    4.3814  -20.9449 C   0  0  0  0  0  0  0  0  0  0  0  0
  -14.0118    5.6608  -20.3794 N   0  0  0  0  0  0  0  0  0  0  0  0
  -13.1600    6.6147  -19.8701 C   0  0  0  0  0  0  0  0  0  0  0  0
  -11.4930    6.6169  -19.7649 S   0  0  0  0  0  0  0  0  0  0  0  0
  -13.7905    7.7306  -19.3426 N   0  0  0  0  0  0  0  0  0  0  0  0
  -13.2540    8.9150  -18.8531 C   0  0  0  0  0  0  0  0  0  0  0  0
  -12.0425    9.1328  -18.8402 O   0  0  0  0  0  0  0  0  0  0  0  0
  -14.2545    9.8612  -18.4022 C   0  0  0  0  0  0  0  0  0  0  0  0
  -14.1638   10.9885  -17.5958 C   0  0  0  0  0  0  0  0  0  0  0  0
  -12.9371   11.5301  -16.9569 C   0  0  0  0  0  0  0  0  0  0  0  0
  -15.4872   11.5221  -17.5119 C   0  0  0  0  0  0  0  0  0  0  0  0
  -16.2923   10.6781  -18.2654 C   0  0  0  0  0  0  0  0  0  0  0  0
  -15.5497    9.6801  -18.8122 O   0  0  0  0  0  0  0  0  0  0  0  0
  -17.6654   10.8445  -18.4322 C   0  0  0  0  0  0  0  0  0  0  0  0
  -18.2425   11.9478  -17.7957 C   0  0  0  0  0  0  0  0  0  0  0  0
  -17.4687   12.8278  -17.0357 C   0  0  0  0  0  0  0  0  0  0  0  0
  -16.0891   12.6277  -16.8815 C   0  0  0  0  0  0  0  0  0  0  0  0
  -12.5766    3.7422  -21.0713 C   0  0  0  0  0  0  0  0  0  0  0  0
  -12.4860    2.4790  -21.6629 C   0  0  0  0  0  0  0  0  0  0  0  0
  -13.6294    1.8428  -22.1407 C   0  0  0  0  0  0  0  0  0  0  0  0
  -15.8968    0.4707  -22.9554 O   0  0  0  0  0  0  0  0  0  0  0  0
  -17.1359    0.0962  -23.3834 C   0  0  0  0  0  0  0  0  0  0  0  0
  -17.5119   -1.1369  -23.9012 C   0  0  0  0  0  0  0  0  0  0  0  0
  -18.8596   -1.2525  -24.2664 C   0  0  0  0  0  0  0  0  0  0  0  0
  -20.0168    1.8808  -23.4604 H   0  0  0  0  0  0  0  0  0  0  0  0
  -15.9204    4.2254  -21.3666 H   0  0  0  0  0  0  0  0  0  0  0  0
  -14.9954    5.9247  -20.3012 H   0  0  0  0  0  0  0  0  0  0  0  0
  -14.8033    7.6779  -19.3423 H   0  0  0  0  0  0  0  0  0  0  0  0
  -12.0819   11.4751  -17.6379 H   0  0  0  0  0  0  0  0  0  0  0  0
  -12.6988   10.9622  -16.0522 H   0  0  0  0  0  0  0  0  0  0  0  0
  -13.0646   12.5805  -16.6779 H   0  0  0  0  0  0  0  0  0  0  0  0
  -18.2518   10.1535  -19.0254 H   0  0  0  0  0  0  0  0  0  0  0  0
  -19.3117   12.1237  -17.8963 H   0  0  0  0  0  0  0  0  0  0  0  0
  -17.9419   13.6816  -16.5547 H   0  0  0  0  0  0  0  0  0  0  0  0
  -15.5010   13.3200  -16.2863 H   0  0  0  0  0  0  0  0  0  0  0  0
  -11.6493    4.1986  -20.7508 H   0  0  0  0  0  0  0  0  0  0  0  0
  -11.5167    1.9947  -21.7556 H   0  0  0  0  0  0  0  0  0  0  0  0
  -13.5399    0.8584  -22.5977 H   0  0  0  0  0  0  0  0  0  0  0  0
  -16.8066   -1.9506  -24.0137 H   0  0  0  0  0  0  0  0  0  0  0  0
  -19.2159   -2.1945  -24.6793 H   0  0  0  0  0  0  0  0  0  0  0  0
  1  2  1  0  0  0  0
  2 32  2  0  0  0  0
  2  3  1  0  0  0  0
  3  4  2  0  0  0  0
  3 33  1  0  0  0  0
  4  5  1  0  0  0  0
  4 30  1  0  0  0  0
  5  6  2  0  0  0  0
  6  7  1  0  0  0  0
  6 29  1  0  0  0  0
  7  8  2  0  0  0  0
  7 28  1  0  0  0  0
  8 34  1  0  0  0  0
  8  9  1  0  0  0  0
  9 10  1  0  0  0  0
  9 26  2  0  0  0  0
 10 11  1  0  0  0  0
 10 35  1  0  0  0  0
 11 12  2  0  0  0  0
 11 13  1  0  0  0  0
 13 14  1  0  0  0  0
 13 36  1  0  0  0  0
 14 15  2  0  0  0  0
 14 16  1  0  0  0  0
 16 17  2  0  0  0  0
 16 21  1  0  0  0  0
 17 18  1  0  0  0  0
 17 19  1  0  0  0  0
 18 37  1  0  0  0  0
 18 38  1  0  0  0  0
 18 39  1  0  0  0  0
 19 20  2  0  0  0  0
 19 25  1  0  0  0  0
 20 21  1  0  0  0  0
 20 22  1  0  0  0  0
 22 23  2  0  0  0  0
 22 40  1  0  0  0  0
 23 24  1  0  0  0  0
 23 41  1  0  0  0  0
 24 25  2  0  0  0  0
 24 42  1  0  0  0  0
 25 43  1  0  0  0  0
 26 27  1  0  0  0  0
 26 44  1  0  0  0  0
 27 28  2  0  0  0  0
 27 45  1  0  0  0  0
 28 46  1  0  0  0  0
 29 30  1  0  0  0  0
 30 31  2  0  0  0  0
 31 32  1  0  0  0  0
 31 47  1  0  0  0  0
 32 48  1  0  0  0  0
M  END
$$$$
