*****_entry_00001_conf_01
 OpenBabel06232217283D

 59 62  0  0  0  0  0  0  0  0999 V2000
  -27.8067   -1.9290  -25.3324 S   0  0  0  0  0  0  0  0  0  0  0  0
  -28.7259   -1.4424  -24.3217 O   0  0  0  0  0  0  0  0  0  0  0  0
  -28.0443   -1.6494  -26.7284 O   0  0  0  0  0  0  0  0  0  0  0  0
  -27.6042   -3.6196  -25.0557 N   0  0  0  0  0  0  0  0  0  0  0  0
  -26.7021   -4.2574  -26.0526 C   0  0  0  0  0  0  0  0  0  0  0  0
  -28.7828   -4.4653  -24.6287 C   0  0  0  0  0  0  0  0  0  0  0  0
  -28.7028   -5.9138  -25.1730 C   0  0  0  0  0  0  0  0  0  0  0  0
  -27.5638   -6.7329  -24.5569 C   0  0  0  0  0  0  0  0  0  0  0  0
  -27.6171   -6.7384  -23.0333 C   0  0  0  0  0  0  0  0  0  0  0  0
  -27.7364   -5.3283  -22.4668 C   0  0  0  0  0  0  0  0  0  0  0  0
  -28.9128   -4.5856  -23.0976 C   0  0  0  0  0  0  0  0  0  0  0  0
  -26.2058   -1.2373  -24.9398 C   0  0  0  0  0  0  0  0  0  0  0  0
  -25.0465   -1.8333  -25.4339 C   0  0  0  0  0  0  0  0  0  0  0  0
  -23.8021   -1.2792  -25.1194 C   0  0  0  0  0  0  0  0  0  0  0  0
  -23.7037   -0.1110  -24.3418 C   0  0  0  0  0  0  0  0  0  0  0  0
  -22.3306    0.4213  -24.0525 C   0  0  0  0  0  0  0  0  0  0  0  0
  -22.2405    1.5814  -23.6666 O   0  0  0  0  0  0  0  0  0  0  0  0
  -21.2827   -0.4469  -24.2702 N   0  0  0  0  0  0  0  0  0  0  0  0
  -19.9803   -0.0896  -24.0410 C   0  0  0  0  0  0  0  0  0  0  0  0
  -18.8657   -1.3575  -24.2888 S   0  0  0  0  0  0  0  0  0  0  0  0
  -17.5802   -0.3029  -23.8281 C   0  0  0  0  0  0  0  0  0  0  0  0
  -18.1137    0.9541  -23.5410 C   0  0  0  0  0  0  0  0  0  0  0  0
  -19.4861    1.0573  -23.6650 N   0  0  0  0  0  0  0  0  0  0  0  0
  -17.2374    1.9832  -23.1545 C   0  0  0  0  0  0  0  0  0  0  0  0
  -15.8619    1.7304  -23.0503 C   0  0  0  0  0  0  0  0  0  0  0  0
  -15.3400    0.4677  -23.3252 C   0  0  0  0  0  0  0  0  0  0  0  0
  -13.9697    0.1457  -23.2140 N   0  0  0  0  0  0  0  0  0  0  0  0
  -12.9432    0.9674  -22.7820 C   0  0  0  0  0  0  0  0  0  0  0  0
  -13.0273    2.1476  -22.4630 O   0  0  0  0  0  0  0  0  0  0  0  0
  -11.6097    0.2616  -22.7649 C   0  0  0  0  0  0  0  0  0  0  0  0
  -16.2015   -0.5672  -23.7263 C   0  0  0  0  0  0  0  0  0  0  0  0
  -24.8820    0.5106  -23.9031 C   0  0  0  0  0  0  0  0  0  0  0  0
  -26.1288   -0.0556  -24.1941 C   0  0  0  0  0  0  0  0  0  0  0  0
  -25.9692   -3.5542  -26.4576 H   0  0  0  0  0  0  0  0  0  0  0  0
  -27.2792   -4.6673  -26.8875 H   0  0  0  0  0  0  0  0  0  0  0  0
  -26.1163   -5.0533  -25.5880 H   0  0  0  0  0  0  0  0  0  0  0  0
  -29.6926   -4.0152  -25.0372 H   0  0  0  0  0  0  0  0  0  0  0  0
  -28.6252   -5.9335  -26.2649 H   0  0  0  0  0  0  0  0  0  0  0  0
  -29.6505   -6.4206  -24.9429 H   0  0  0  0  0  0  0  0  0  0  0  0
  -26.5947   -6.3356  -24.8768 H   0  0  0  0  0  0  0  0  0  0  0  0
  -27.6159   -7.7637  -24.9261 H   0  0  0  0  0  0  0  0  0  0  0  0
  -26.7215   -7.2263  -22.6321 H   0  0  0  0  0  0  0  0  0  0  0  0
  -28.4772   -7.3345  -22.7041 H   0  0  0  0  0  0  0  0  0  0  0  0
  -26.8051   -4.7760  -22.6388 H   0  0  0  0  0  0  0  0  0  0  0  0
  -27.8764   -5.3845  -21.3812 H   0  0  0  0  0  0  0  0  0  0  0  0
  -29.0458   -3.6250  -22.6034 H   0  0  0  0  0  0  0  0  0  0  0  0
  -29.8341   -5.1398  -22.8693 H   0  0  0  0  0  0  0  0  0  0  0  0
  -25.0958   -2.7126  -26.0709 H   0  0  0  0  0  0  0  0  0  0  0  0
  -22.8991   -1.7584  -25.4984 H   0  0  0  0  0  0  0  0  0  0  0  0
  -21.4174   -1.3768  -24.6268 H   0  0  0  0  0  0  0  0  0  0  0  0
  -17.6347    2.9691  -22.9319 H   0  0  0  0  0  0  0  0  0  0  0  0
  -15.2290    2.5571  -22.7410 H   0  0  0  0  0  0  0  0  0  0  0  0
  -13.7123   -0.7966  -23.4789 H   0  0  0  0  0  0  0  0  0  0  0  0
  -11.7262   -0.8003  -22.5301 H   0  0  0  0  0  0  0  0  0  0  0  0
  -10.9749    0.7089  -21.9943 H   0  0  0  0  0  0  0  0  0  0  0  0
  -11.1308    0.3709  -23.7413 H   0  0  0  0  0  0  0  0  0  0  0  0
  -15.8267   -1.5605  -23.9511 H   0  0  0  0  0  0  0  0  0  0  0  0
  -24.8732    1.4504  -23.3614 H   0  0  0  0  0  0  0  0  0  0  0  0
  -27.0345    0.4452  -23.8550 H   0  0  0  0  0  0  0  0  0  0  0  0
  1  2  2  0  0  0  0
  1 12  1  0  0  0  0
  1  3  2  0  0  0  0
  1  4  1  0  0  0  0
  4  5  1  0  0  0  0
  4  6  1  0  0  0  0
  5 34  1  0  0  0  0
  5 35  1  0  0  0  0
  5 36  1  0  0  0  0
  6 11  1  0  0  0  0
  6  7  1  0  0  0  0
  6 37  1  0  0  0  0
  7 38  1  0  0  0  0
  7 39  1  0  0  0  0
  7  8  1  0  0  0  0
  8  9  1  0  0  0  0
  8 40  1  0  0  0  0
  8 41  1  0  0  0  0
  9 42  1  0  0  0  0
  9 43  1  0  0  0  0
  9 10  1  0  0  0  0
 10 11  1  0  0  0  0
 10 44  1  0  0  0  0
 10 45  1  0  0  0  0
 11 46  1  0  0  0  0
 11 47  1  0  0  0  0
 12 33  2  0  0  0  0
 12 13  1  0  0  0  0
 13 48  1  0  0  0  0
 13 14  2  0  0  0  0
 14 49  1  0  0  0  0
 14 15  1  0  0  0  0
 15 16  1  0  0  0  0
 15 32  2  0  0  0  0
 16 17  2  0  0  0  0
 16 18  1  0  0  0  0
 18 50  1  0  0  0  0
 18 19  1  0  0  0  0
 19 20  1  0  0  0  0
 19 23  2  0  0  0  0
 20 21  1  0  0  0  0
 21 22  2  0  0  0  0
 21 31  1  0  0  0  0
 22 23  1  0  0  0  0
 22 24  1  0  0  0  0
 24 25  2  0  0  0  0
 24 51  1  0  0  0  0
 25 26  1  0  0  0  0
 25 52  1  0  0  0  0
 26 27  1  0  0  0  0
 26 31  2  0  0  0  0
 27 53  1  0  0  0  0
 27 28  1  0  0  0  0
 28 30  1  0  0  0  0
 28 29  2  0  0  0  0
 30 54  1  0  0  0  0
 30 55  1  0  0  0  0
 30 56  1  0  0  0  0
 31 57  1  0  0  0  0
 32 33  1  0  0  0  0
 32 58  1  0  0  0  0
 33 59  1  0  0  0  0
M  END
$$$$
