*****_entry_00001_conf_01
 OpenBabel06232217283D

 66 69  0  0  1  0  0  0  0  0999 V2000
  -16.7961   10.0685  -18.8533 O   0  0  0  0  0  0  0  0  0  0  0  0
  -16.9434    9.5940  -20.2006 C   0  0  0  0  0  0  0  0  0  0  0  0
  -15.9617    8.4231  -20.3745 C   0  0  1  0  0  0  0  0  0  0  0  0
  -15.8564    8.1122  -21.7725 O   0  0  0  0  0  0  0  0  0  0  0  0
  -14.5688    8.7923  -19.8073 C   0  0  0  0  0  0  0  0  0  0  0  0
  -13.5152    7.7510  -19.9113 N   0  3  1  0  0  0  0  0  0  0  0  0
  -12.1782    8.2318  -19.4655 C   0  0  0  0  0  0  0  0  0  0  0  0
  -11.1302    7.1076  -19.4702 C   0  0  0  0  0  0  0  0  0  0  0  0
  -11.6346    9.4560  -20.2112 C   0  0  0  0  0  0  0  0  0  0  0  0
  -13.9432    6.4932  -19.2513 C   0  0  0  0  0  0  0  0  0  0  0  0
  -14.2034    5.4025  -20.2794 C   0  0  0  0  0  0  0  0  0  0  0  0
  -15.1548    5.5313  -21.1516 N   0  0  0  0  0  0  0  0  0  0  0  0
  -15.3644    4.4309  -21.9195 C   0  0  0  0  0  0  0  0  0  0  0  0
  -16.6153    4.4117  -23.0735 S   0  0  0  0  0  0  0  0  0  0  0  0
  -16.3339    2.7669  -23.4299 C   0  0  0  0  0  0  0  0  0  0  0  0
  -15.2776    2.2249  -22.7145 C   0  0  0  0  0  0  0  0  0  0  0  0
  -14.9714    0.7964  -22.8386 C   0  0  0  0  0  0  0  0  0  0  0  0
  -13.6662    0.3188  -22.6488 C   0  0  0  0  0  0  0  0  0  0  0  0
  -13.3640   -1.0356  -22.8309 C   0  0  0  0  0  0  0  0  0  0  0  0
  -14.3621   -1.9411  -23.2017 C   0  0  0  0  0  0  0  0  0  0  0  0
  -14.0593   -3.4005  -23.3639 C   0  0  0  0  0  0  0  0  0  0  0  0
  -15.6678   -1.4732  -23.3745 C   0  0  0  0  0  0  0  0  0  0  0  0
  -15.9645   -0.1164  -23.2112 C   0  0  0  0  0  0  0  0  0  0  0  0
  -14.6859    3.2261  -21.8600 C   0  0  0  0  0  0  0  0  0  0  0  0
  -13.5615    3.1577  -20.9384 C   0  0  0  0  0  0  0  0  0  0  0  0
  -12.8147    2.1937  -20.8071 O   0  0  0  0  0  0  0  0  0  0  0  0
  -13.3956    4.2919  -20.1776 N   0  0  0  0  0  0  0  0  0  0  0  0
  -17.7131   10.9972  -18.4375 C   0  0  0  0  0  0  0  0  0  0  0  0
  -17.2734   11.9560  -17.5095 C   0  0  0  0  0  0  0  0  0  0  0  0
  -15.8464   11.9889  -17.0391 C   0  0  0  0  0  0  0  0  0  0  0  0
  -18.1986   12.8649  -16.9726 C   0  0  0  0  0  0  0  0  0  0  0  0
  -19.5379   12.8274  -17.3588 C   0  0  0  0  0  0  0  0  0  0  0  0
  -19.9690   11.8706  -18.2722 C   0  0  0  0  0  0  0  0  0  0  0  0
  -19.0627   10.9495  -18.8004 C   0  0  0  0  0  0  0  0  0  0  0  0
  -16.6995   10.4082  -20.8928 H   0  0  0  0  0  0  0  0  0  0  0  0
  -17.9553    9.2371  -20.4094 H   0  0  0  0  0  0  0  0  0  0  0  0
  -16.3726    7.5383  -19.8769 H   0  0  0  0  0  0  0  0  0  0  0  0
  -14.9189    7.8824  -21.9236 H   0  0  0  0  0  0  0  0  0  0  0  0
  -14.6939    9.1044  -18.7636 H   0  0  0  0  0  0  0  0  0  0  0  0
  -14.2353    9.6683  -20.3740 H   0  0  0  0  0  0  0  0  0  0  0  0
  -12.2549    8.5132  -18.4088 H   0  0  0  0  0  0  0  0  0  0  0  0
  -10.8004    6.8492  -20.4814 H   0  0  0  0  0  0  0  0  0  0  0  0
  -11.5193    6.2042  -18.9876 H   0  0  0  0  0  0  0  0  0  0  0  0
  -10.2410    7.4183  -18.9095 H   0  0  0  0  0  0  0  0  0  0  0  0
  -11.4332    9.2396  -21.2646 H   0  0  0  0  0  0  0  0  0  0  0  0
  -10.6920    9.7841  -19.7581 H   0  0  0  0  0  0  0  0  0  0  0  0
  -12.3243   10.3034  -20.1580 H   0  0  0  0  0  0  0  0  0  0  0  0
  -14.8968    6.6416  -18.7327 H   0  0  0  0  0  0  0  0  0  0  0  0
  -13.2069    6.1461  -18.5183 H   0  0  0  0  0  0  0  0  0  0  0  0
  -16.9860    2.2714  -24.1366 H   0  0  0  0  0  0  0  0  0  0  0  0
  -12.8645    0.9932  -22.3572 H   0  0  0  0  0  0  0  0  0  0  0  0
  -12.3416   -1.3752  -22.6813 H   0  0  0  0  0  0  0  0  0  0  0  0
  -12.9863   -3.5714  -23.4990 H   0  0  0  0  0  0  0  0  0  0  0  0
  -14.5674   -3.8016  -24.2474 H   0  0  0  0  0  0  0  0  0  0  0  0
  -14.3912   -3.9524  -22.4790 H   0  0  0  0  0  0  0  0  0  0  0  0
  -16.4679   -2.1603  -23.6411 H   0  0  0  0  0  0  0  0  0  0  0  0
  -16.9871    0.2098  -23.3819 H   0  0  0  0  0  0  0  0  0  0  0  0
  -12.6997    4.2550  -19.4434 H   0  0  0  0  0  0  0  0  0  0  0  0
  -15.6723   11.1867  -16.3153 H   0  0  0  0  0  0  0  0  0  0  0  0
  -15.6097   12.9443  -16.5583 H   0  0  0  0  0  0  0  0  0  0  0  0
  -15.1553   11.8747  -17.8805 H   0  0  0  0  0  0  0  0  0  0  0  0
  -17.8814   13.6026  -16.2386 H   0  0  0  0  0  0  0  0  0  0  0  0
  -20.2474   13.5315  -16.9321 H   0  0  0  0  0  0  0  0  0  0  0  0
  -21.0173   11.8235  -18.5560 H   0  0  0  0  0  0  0  0  0  0  0  0
  -19.4485   10.1786  -19.4590 H   0  0  0  0  0  0  0  0  0  0  0  0
  -13.4183    7.5231  -20.9626 H   0  0  0  0  0  0  0  0  0  0  0  0
  1  2  1  0  0  0  0
  1 28  1  0  0  0  0
  2  3  1  0  0  0  0
  2 35  1  0  0  0  0
  2 36  1  0  0  0  0
  3  5  1  0  0  0  0
  3 37  1  1  0  0  0
  3  4  1  0  0  0  0
  4 38  1  0  0  0  0
  5 39  1  0  0  0  0
  5 40  1  0  0  0  0
  5  6  1  0  0  0  0
  6 10  1  0  0  0  0
  6  7  1  0  0  0  0
  6 66  1  6  0  0  0
  7  8  1  0  0  0  0
  7  9  1  0  0  0  0
  7 41  1  0  0  0  0
  8 42  1  0  0  0  0
  8 43  1  0  0  0  0
  8 44  1  0  0  0  0
  9 47  1  0  0  0  0
  9 45  1  0  0  0  0
  9 46  1  0  0  0  0
 10 11  1  0  0  0  0
 10 48  1  0  0  0  0
 10 49  1  0  0  0  0
 11 12  2  0  0  0  0
 11 27  1  0  0  0  0
 12 13  1  0  0  0  0
 13 14  1  0  0  0  0
 13 24  2  0  0  0  0
 14 15  1  0  0  0  0
 15 16  2  0  0  0  0
 15 50  1  0  0  0  0
 16 17  1  0  0  0  0
 16 24  1  0  0  0  0
 17 18  2  0  0  0  0
 17 23  1  0  0  0  0
 18 19  1  0  0  0  0
 18 51  1  0  0  0  0
 19 52  1  0  0  0  0
 19 20  2  0  0  0  0
 20 21  1  0  0  0  0
 20 22  1  0  0  0  0
 21 53  1  0  0  0  0
 21 54  1  0  0  0  0
 21 55  1  0  0  0  0
 22 56  1  0  0  0  0
 22 23  2  0  0  0  0
 23 57  1  0  0  0  0
 24 25  1  0  0  0  0
 25 27  1  0  0  0  0
 25 26  2  0  0  0  0
 27 58  1  0  0  0  0
 28 29  2  0  0  0  0
 28 34  1  0  0  0  0
 29 30  1  0  0  0  0
 29 31  1  0  0  0  0
 30 60  1  0  0  0  0
 30 61  1  0  0  0  0
 30 59  1  0  0  0  0
 31 32  2  0  0  0  0
 31 62  1  0  0  0  0
 32 33  1  0  0  0  0
 32 63  1  0  0  0  0
 33 34  2  0  0  0  0
 33 64  1  0  0  0  0
 34 65  1  0  0  0  0
M  CHG  1   6   1
M  END
$$$$
