*****_entry_00001_conf_01
 OpenBabel06232217283D

 45 48  0  0  0  0  0  0  0  0999 V2000
  -15.3046   11.9315  -18.1119 Cl  0  0  0  0  0  0  0  0  0  0  0  0
  -15.4010   10.3539  -18.7922 C   0  0  0  0  0  0  0  0  0  0  0  0
  -16.5331    9.9811  -19.5183 C   0  0  0  0  0  0  0  0  0  0  0  0
  -16.6125    8.7025  -20.0737 C   0  0  0  0  0  0  0  0  0  0  0  0
  -15.5636    7.8040  -19.8735 C   0  0  0  0  0  0  0  0  0  0  0  0
  -15.5628    6.5196  -20.4387 O   0  0  0  0  0  0  0  0  0  0  0  0
  -16.0559    6.3853  -21.7384 C   0  0  0  0  0  0  0  0  0  0  0  0
  -16.5223    7.2834  -22.4286 O   0  0  0  0  0  0  0  0  0  0  0  0
  -15.9678    4.9236  -22.1286 C   0  0  0  0  0  0  0  0  0  0  0  0
  -14.2890    4.2645  -21.8894 S   0  0  0  0  0  0  0  0  0  0  0  0
  -14.6027    2.6025  -22.3678 C   0  0  0  0  0  0  0  0  0  0  0  0
  -15.8150    2.2886  -22.7212 N   0  0  0  0  0  0  0  0  0  0  0  0
  -16.0291    0.9734  -23.1298 C   0  0  0  0  0  0  0  0  0  0  0  0
  -17.4479    0.6326  -23.4739 C   0  0  0  0  0  0  0  0  0  0  0  0
  -17.7994   -0.6564  -23.8898 C   0  0  0  0  0  0  0  0  0  0  0  0
  -19.1317   -0.9589  -24.1878 C   0  0  0  0  0  0  0  0  0  0  0  0
  -20.1288    0.0126  -24.0714 C   0  0  0  0  0  0  0  0  0  0  0  0
  -21.3872   -0.4208  -24.3836 O   0  0  0  0  0  0  0  0  0  0  0  0
  -22.4329    0.5413  -24.3214 C   0  0  0  0  0  0  0  0  0  0  0  0
  -19.7812    1.3004  -23.6642 C   0  0  0  0  0  0  0  0  0  0  0  0
  -18.4473    1.6089  -23.3669 C   0  0  0  0  0  0  0  0  0  0  0  0
  -15.1024    0.0573  -23.2466 N   0  0  0  0  0  0  0  0  0  0  0  0
  -13.8469    0.4790  -22.9280 C   0  0  0  0  0  0  0  0  0  0  0  0
  -13.5929    1.6873  -22.3407 N   0  0  0  0  0  0  0  0  0  0  0  0
  -12.2495    1.9617  -22.4167 N   0  0  0  0  0  0  0  0  0  0  0  0
  -11.6420    0.7756  -22.7969 C   0  0  0  0  0  0  0  0  0  0  0  0
  -10.4543    0.5109  -22.7668 O   0  0  0  0  0  0  0  0  0  0  0  0
  -12.7099   -0.1601  -23.2280 C   0  0  0  0  0  0  0  0  0  0  0  0
  -14.4203    8.1800  -19.1679 C   0  0  0  0  0  0  0  0  0  0  0  0
  -14.3426    9.4609  -18.6192 C   0  0  0  0  0  0  0  0  0  0  0  0
  -17.3543   10.6797  -19.6554 H   0  0  0  0  0  0  0  0  0  0  0  0
  -17.4920    8.4203  -20.6456 H   0  0  0  0  0  0  0  0  0  0  0  0
  -16.2362    4.8324  -23.1850 H   0  0  0  0  0  0  0  0  0  0  0  0
  -16.6713    4.3336  -21.5335 H   0  0  0  0  0  0  0  0  0  0  0  0
  -17.0516   -1.4394  -23.9791 H   0  0  0  0  0  0  0  0  0  0  0  0
  -19.3968   -1.9646  -24.5061 H   0  0  0  0  0  0  0  0  0  0  0  0
  -23.3725    0.0289  -24.5498 H   0  0  0  0  0  0  0  0  0  0  0  0
  -22.2903    1.3262  -25.0711 H   0  0  0  0  0  0  0  0  0  0  0  0
  -22.5213    0.9655  -23.3155 H   0  0  0  0  0  0  0  0  0  0  0  0
  -20.5200    2.0890  -23.5654 H   0  0  0  0  0  0  0  0  0  0  0  0
  -18.1992    2.6184  -23.0455 H   0  0  0  0  0  0  0  0  0  0  0  0
  -11.8143    2.5812  -21.7448 H   0  0  0  0  0  0  0  0  0  0  0  0
  -12.5541   -1.1073  -23.7046 H   0  0  0  0  0  0  0  0  0  0  0  0
  -13.5959    7.4841  -19.0422 H   0  0  0  0  0  0  0  0  0  0  0  0
  -13.4580    9.7574  -18.0620 H   0  0  0  0  0  0  0  0  0  0  0  0
  1  2  1  0  0  0  0
  2  3  2  0  0  0  0
  2 30  1  0  0  0  0
  3 31  1  0  0  0  0
  3  4  1  0  0  0  0
  4  5  2  0  0  0  0
  4 32  1  0  0  0  0
  5 29  1  0  0  0  0
  5  6  1  0  0  0  0
  6  7  1  0  0  0  0
  7  8  2  0  0  0  0
  7  9  1  0  0  0  0
  9 10  1  0  0  0  0
  9 33  1  0  0  0  0
  9 34  1  0  0  0  0
 10 11  1  0  0  0  0
 11 12  2  0  0  0  0
 11 24  1  0  0  0  0
 12 13  1  0  0  0  0
 13 14  1  0  0  0  0
 13 22  2  0  0  0  0
 14 21  2  0  0  0  0
 14 15  1  0  0  0  0
 15 16  2  0  0  0  0
 15 35  1  0  0  0  0
 16 17  1  0  0  0  0
 16 36  1  0  0  0  0
 17 20  2  0  0  0  0
 17 18  1  0  0  0  0
 18 19  1  0  0  0  0
 19 37  1  0  0  0  0
 19 38  1  0  0  0  0
 19 39  1  0  0  0  0
 20 21  1  0  0  0  0
 20 40  1  0  0  0  0
 21 41  1  0  0  0  0
 22 23  1  0  0  0  0
 23 24  1  0  0  0  0
 23 28  2  0  0  0  0
 24 25  1  0  0  0  0
 25 26  1  0  0  0  0
 25 42  1  0  0  0  0
 26 27  2  0  0  0  0
 26 28  1  0  0  0  0
 28 43  1  0  0  0  0
 29 30  2  0  0  0  0
 29 44  1  0  0  0  0
 30 45  1  0  0  0  0
M  END
$$$$
