*****_entry_00001_conf_01
 OpenBabel06232217283D

 60 64  0  0  1  0  0  0  0  0999 V2000
  -23.0942    7.3328  -21.4148 F   0  0  0  0  0  0  0  0  0  0  0  0
  -23.1099    6.0729  -21.8679 C   0  0  0  0  0  0  0  0  0  0  0  0
  -22.0603    5.2188  -21.5672 C   0  0  0  0  0  0  0  0  0  0  0  0
  -22.0762    3.9038  -22.0456 C   0  0  0  0  0  0  0  0  0  0  0  0
  -23.1535    3.4167  -22.8120 C   0  0  0  0  0  0  0  0  0  0  0  0
  -23.2033    1.9798  -23.3767 C   0  0  1  0  0  0  0  0  0  0  0  0
  -24.4256    1.7300  -24.1904 N   0  0  0  0  0  0  0  0  0  0  0  0
  -25.6266    1.1999  -23.5533 C   0  0  0  0  0  0  0  0  0  0  0  0
  -25.6695    0.8737  -22.1877 C   0  0  0  0  0  0  0  0  0  0  0  0
  -26.8171    0.3521  -21.5640 C   0  0  0  0  0  0  0  0  0  0  0  0
  -27.9789    0.1456  -22.2901 C   0  0  0  0  0  0  0  0  0  0  0  0
  -29.1600   -0.3401  -21.8070 O   0  0  0  0  0  0  0  0  0  0  0  0
  -29.1444   -0.8470  -20.4774 C   0  0  0  0  0  0  0  0  0  0  0  0
  -27.9695    0.4522  -23.6451 C   0  0  0  0  0  0  0  0  0  0  0  0
  -26.8142    0.9583  -24.2672 C   0  0  0  0  0  0  0  0  0  0  0  0
  -24.3892    2.1069  -25.5531 C   0  0  0  0  0  0  0  0  0  0  0  0
  -25.2943    2.0026  -26.3765 O   0  0  0  0  0  0  0  0  0  0  0  0
  -23.1199    2.8057  -25.9994 C   0  0  0  0  0  0  0  0  0  0  0  0
  -21.8588    2.0931  -25.5721 C   0  0  0  0  0  0  0  0  0  0  0  0
  -21.9253    1.5413  -24.1448 C   0  0  2  0  0  0  0  0  0  0  0  0
  -21.8650    0.0046  -24.1705 C   0  0  0  0  0  0  0  0  0  0  0  0
  -22.8843   -0.6610  -24.3852 O   0  0  0  0  0  0  0  0  0  0  0  0
  -20.7168   -0.6958  -23.9518 N   0  0  0  0  0  0  0  0  0  0  0  0
  -19.4660   -0.2009  -23.7379 C   0  0  0  0  0  0  0  0  0  0  0  0
  -18.2407   -1.3745  -23.5762 S   0  0  0  0  0  0  0  0  0  0  0  0
  -17.0657   -0.1153  -23.4355 C   0  0  0  0  0  0  0  0  0  0  0  0
  -17.7245    1.1133  -23.4933 C   0  0  0  0  0  0  0  0  0  0  0  0
  -19.0944    1.0446  -23.6540 N   0  0  0  0  0  0  0  0  0  0  0  0
  -16.9714    2.2972  -23.3943 C   0  0  0  0  0  0  0  0  0  0  0  0
  -15.5855    2.2315  -23.2315 C   0  0  0  0  0  0  0  0  0  0  0  0
  -14.9394    1.0001  -23.1690 C   0  0  0  0  0  0  0  0  0  0  0  0
  -13.5897    0.8294  -23.0076 O   0  0  0  0  0  0  0  0  0  0  0  0
  -12.8704    1.9332  -22.4661 C   0  0  0  0  0  0  0  0  0  0  0  0
  -15.6710   -0.1916  -23.2837 C   0  0  0  0  0  0  0  0  0  0  0  0
  -24.1863    4.3218  -23.1127 C   0  0  0  0  0  0  0  0  0  0  0  0
  -24.1714    5.6378  -22.6434 C   0  0  0  0  0  0  0  0  0  0  0  0
  -21.2297    5.5788  -20.9684 H   0  0  0  0  0  0  0  0  0  0  0  0
  -21.2231    3.2729  -21.8033 H   0  0  0  0  0  0  0  0  0  0  0  0
  -23.2229    1.3316  -22.4986 H   0  0  0  0  0  0  0  0  0  0  0  0
  -24.8155    0.9985  -21.5328 H   0  0  0  0  0  0  0  0  0  0  0  0
  -26.7514    0.1253  -20.5049 H   0  0  0  0  0  0  0  0  0  0  0  0
  -30.1582   -1.1787  -20.2333 H   0  0  0  0  0  0  0  0  0  0  0  0
  -28.8682   -0.0687  -19.7580 H   0  0  0  0  0  0  0  0  0  0  0  0
  -28.4807   -1.7143  -20.3958 H   0  0  0  0  0  0  0  0  0  0  0  0
  -28.8691    0.2936  -24.2353 H   0  0  0  0  0  0  0  0  0  0  0  0
  -26.9141    1.1377  -25.3305 H   0  0  0  0  0  0  0  0  0  0  0  0
  -23.1373    3.8348  -25.6271 H   0  0  0  0  0  0  0  0  0  0  0  0
  -23.1286    2.8789  -27.0937 H   0  0  0  0  0  0  0  0  0  0  0  0
  -21.0266    2.8061  -25.6424 H   0  0  0  0  0  0  0  0  0  0  0  0
  -21.6188    1.3059  -26.2970 H   0  0  0  0  0  0  0  0  0  0  0  0
  -21.0218    1.9133  -23.6640 H   0  0  0  0  0  0  0  0  0  0  0  0
  -20.8072   -1.6994  -24.0407 H   0  0  0  0  0  0  0  0  0  0  0  0
  -17.4662    3.2610  -23.4475 H   0  0  0  0  0  0  0  0  0  0  0  0
  -15.0447    3.1701  -23.1641 H   0  0  0  0  0  0  0  0  0  0  0  0
  -11.8373    1.6142  -22.3017 H   0  0  0  0  0  0  0  0  0  0  0  0
  -13.2831    2.2383  -21.4980 H   0  0  0  0  0  0  0  0  0  0  0  0
  -12.8521    2.7733  -23.1685 H   0  0  0  0  0  0  0  0  0  0  0  0
  -15.1651   -1.1521  -23.2468 H   0  0  0  0  0  0  0  0  0  0  0  0
  -25.0177    4.0149  -23.7340 H   0  0  0  0  0  0  0  0  0  0  0  0
  -24.9772    6.3233  -22.8849 H   0  0  0  0  0  0  0  0  0  0  0  0
  1  2  1  0  0  0  0
  2  3  2  0  0  0  0
  2 36  1  0  0  0  0
  3  4  1  0  0  0  0
  3 37  1  0  0  0  0
  4 38  1  0  0  0  0
  4  5  2  0  0  0  0
  5  6  1  0  0  0  0
  5 35  1  0  0  0  0
  6  7  1  0  0  0  0
  6 39  1  0  0  0  0
  6 20  1  6  0  0  0
  7 16  1  0  0  0  0
  7  8  1  0  0  0  0
  8  9  2  0  0  0  0
  8 15  1  0  0  0  0
  9 10  1  0  0  0  0
  9 40  1  0  0  0  0
 10 11  2  0  0  0  0
 10 41  1  0  0  0  0
 11 14  1  0  0  0  0
 11 12  1  0  0  0  0
 12 13  1  0  0  0  0
 13 43  1  0  0  0  0
 13 42  1  0  0  0  0
 13 44  1  0  0  0  0
 14 15  2  0  0  0  0
 14 45  1  0  0  0  0
 15 46  1  0  0  0  0
 16 17  2  0  0  0  0
 16 18  1  0  0  0  0
 18 47  1  0  0  0  0
 18 19  1  0  0  0  0
 18 48  1  0  0  0  0
 19 49  1  0  0  0  0
 19 50  1  0  0  0  0
 19 20  1  0  0  0  0
 20 21  1  0  0  0  0
 20 51  1  1  0  0  0
 21 22  2  0  0  0  0
 21 23  1  0  0  0  0
 23 52  1  0  0  0  0
 23 24  1  0  0  0  0
 24 25  1  0  0  0  0
 24 28  2  0  0  0  0
 25 26  1  0  0  0  0
 26 27  2  0  0  0  0
 26 34  1  0  0  0  0
 27 28  1  0  0  0  0
 27 29  1  0  0  0  0
 29 30  2  0  0  0  0
 29 53  1  0  0  0  0
 30 31  1  0  0  0  0
 30 54  1  0  0  0  0
 31 34  2  0  0  0  0
 31 32  1  0  0  0  0
 32 33  1  0  0  0  0
 33 55  1  0  0  0  0
 33 57  1  0  0  0  0
 33 56  1  0  0  0  0
 34 58  1  0  0  0  0
 35 36  2  0  0  0  0
 35 59  1  0  0  0  0
 36 60  1  0  0  0  0
M  END
$$$$
