*****_entry_00001_conf_01
 OpenBabel06232217283D

 55 59  0  0  0  0  0  0  0  0999 V2000
  -25.0592   -0.4710  -26.6565 F   0  0  0  0  0  0  0  0  0  0  0  0
  -24.0399    0.0549  -25.9660 C   0  0  0  0  0  0  0  0  0  0  0  0
  -23.6701    1.3727  -26.1817 C   0  0  0  0  0  0  0  0  0  0  0  0
  -22.6083    1.9261  -25.4539 C   0  0  0  0  0  0  0  0  0  0  0  0
  -21.8996    1.1718  -24.5014 C   0  0  0  0  0  0  0  0  0  0  0  0
  -20.8304    1.7341  -23.6963 N   0  0  0  0  0  0  0  0  0  0  0  0
  -19.7756    0.9197  -23.2688 C   0  0  0  0  0  0  0  0  0  0  0  0
  -19.7788   -0.3112  -23.2526 O   0  0  0  0  0  0  0  0  0  0  0  0
  -18.5311    1.6465  -22.8582 C   0  0  0  0  0  0  0  0  0  0  0  0
  -17.4057    0.9031  -22.7942 C   0  0  0  0  0  0  0  0  0  0  0  0
  -16.0629    1.2766  -22.4849 C   0  0  0  0  0  0  0  0  0  0  0  0
  -14.8853    0.6650  -23.0165 C   0  0  0  0  0  0  0  0  0  0  0  0
  -13.7852    1.3156  -22.4479 C   0  0  0  0  0  0  0  0  0  0  0  0
  -14.2880    2.2848  -21.6047 N   0  0  0  0  0  0  0  0  0  0  0  0
  -13.4954    3.2423  -20.8467 C   0  0  0  0  0  0  0  0  0  0  0  0
  -14.0382    4.6627  -20.8056 C   0  0  0  0  0  0  0  0  0  0  0  0
  -14.9204    4.9781  -21.6055 O   0  0  0  0  0  0  0  0  0  0  0  0
  -13.5376    5.4813  -19.8088 N   0  0  0  0  0  0  0  0  0  0  0  0
  -13.9752    6.7756  -19.4546 C   0  0  0  0  0  0  0  0  0  0  0  0
  -13.2882    7.6269  -18.5875 C   0  0  0  0  0  0  0  0  0  0  0  0
  -13.7801    8.9074  -18.3125 C   0  0  0  0  0  0  0  0  0  0  0  0
  -14.9626    9.3476  -18.9016 C   0  0  0  0  0  0  0  0  0  0  0  0
  -15.6565    8.5069  -19.7668 C   0  0  0  0  0  0  0  0  0  0  0  0
  -15.1644    7.2283  -20.0427 C   0  0  0  0  0  0  0  0  0  0  0  0
  -15.6602    2.2318  -21.5815 C   0  0  0  0  0  0  0  0  0  0  0  0
  -12.4638    0.9600  -22.7633 C   0  0  0  0  0  0  0  0  0  0  0  0
  -12.2626   -0.0753  -23.6811 C   0  0  0  0  0  0  0  0  0  0  0  0
  -13.3389   -0.7348  -24.2651 C   0  0  0  0  0  0  0  0  0  0  0  0
  -14.6511   -0.3753  -23.9425 C   0  0  0  0  0  0  0  0  0  0  0  0
  -18.6073    3.1001  -22.6274 C   0  0  0  0  0  0  0  0  0  0  0  0
  -17.6603    3.8660  -22.5192 O   0  0  0  0  0  0  0  0  0  0  0  0
  -19.8792    3.5770  -22.5842 N   0  0  0  0  0  0  0  0  0  0  0  0
  -20.9215    3.0685  -23.3028 C   0  0  0  0  0  0  0  0  0  0  0  0
  -21.8605    3.8332  -23.5246 O   0  0  0  0  0  0  0  0  0  0  0  0
  -22.3043   -0.1662  -24.3133 C   0  0  0  0  0  0  0  0  0  0  0  0
  -23.3649   -0.7214  -25.0389 C   0  0  0  0  0  0  0  0  0  0  0  0
  -24.2047    1.9678  -26.9158 H   0  0  0  0  0  0  0  0  0  0  0  0
  -22.3401    2.9527  -25.6887 H   0  0  0  0  0  0  0  0  0  0  0  0
  -17.4905   -0.1538  -23.0536 H   0  0  0  0  0  0  0  0  0  0  0  0
  -12.4914    3.2685  -21.2840 H   0  0  0  0  0  0  0  0  0  0  0  0
  -13.4138    2.8589  -19.8240 H   0  0  0  0  0  0  0  0  0  0  0  0
  -12.7364    5.1452  -19.2865 H   0  0  0  0  0  0  0  0  0  0  0  0
  -12.3587    7.3321  -18.1117 H   0  0  0  0  0  0  0  0  0  0  0  0
  -13.2321    9.5601  -17.6375 H   0  0  0  0  0  0  0  0  0  0  0  0
  -15.3404   10.3436  -18.6861 H   0  0  0  0  0  0  0  0  0  0  0  0
  -16.5805    8.8452  -20.2285 H   0  0  0  0  0  0  0  0  0  0  0  0
  -15.7265    6.5931  -20.7226 H   0  0  0  0  0  0  0  0  0  0  0  0
  -16.2287    2.9067  -20.9535 H   0  0  0  0  0  0  0  0  0  0  0  0
  -11.6125    1.4675  -22.3192 H   0  0  0  0  0  0  0  0  0  0  0  0
  -11.2479   -0.3659  -23.9450 H   0  0  0  0  0  0  0  0  0  0  0  0
  -13.1611   -1.5337  -24.9809 H   0  0  0  0  0  0  0  0  0  0  0  0
  -15.4823   -0.8950  -24.4109 H   0  0  0  0  0  0  0  0  0  0  0  0
  -19.9467    4.5758  -22.4371 H   0  0  0  0  0  0  0  0  0  0  0  0
  -21.8293   -0.8034  -23.5701 H   0  0  0  0  0  0  0  0  0  0  0  0
  -23.6677   -1.7509  -24.8749 H   0  0  0  0  0  0  0  0  0  0  0  0
  1  2  1  0  0  0  0
  2 36  2  0  0  0  0
  2  3  1  0  0  0  0
  3  4  2  0  0  0  0
  3 37  1  0  0  0  0
  4 38  1  0  0  0  0
  4  5  1  0  0  0  0
  5  6  1  0  0  0  0
  5 35  2  0  0  0  0
  6  7  1  0  0  0  0
  6 33  1  0  0  0  0
  7  8  2  0  0  0  0
  7  9  1  0  0  0  0
  9 10  2  0  0  0  0
  9 30  1  0  0  0  0
 10 39  1  0  0  0  0
 10 11  1  0  0  0  0
 11 12  1  0  0  0  0
 11 25  2  0  0  0  0
 12 13  2  0  0  0  0
 12 29  1  0  0  0  0
 13 14  1  0  0  0  0
 13 26  1  0  0  0  0
 14 25  1  0  0  0  0
 14 15  1  0  0  0  0
 15 16  1  0  0  0  0
 15 40  1  0  0  0  0
 15 41  1  0  0  0  0
 16 18  1  0  0  0  0
 16 17  2  0  0  0  0
 18 19  1  0  0  0  0
 18 42  1  0  0  0  0
 19 24  2  0  0  0  0
 19 20  1  0  0  0  0
 20 43  1  0  0  0  0
 20 21  2  0  0  0  0
 21 44  1  0  0  0  0
 21 22  1  0  0  0  0
 22 45  1  0  0  0  0
 22 23  2  0  0  0  0
 23 24  1  0  0  0  0
 23 46  1  0  0  0  0
 24 47  1  0  0  0  0
 25 48  1  0  0  0  0
 26 49  1  0  0  0  0
 26 27  2  0  0  0  0
 27 28  1  0  0  0  0
 27 50  1  0  0  0  0
 28 51  1  0  0  0  0
 28 29  2  0  0  0  0
 29 52  1  0  0  0  0
 30 31  2  0  0  0  0
 30 32  1  0  0  0  0
 32 33  1  0  0  0  0
 32 53  1  0  0  0  0
 33 34  2  0  0  0  0
 35 36  1  0  0  0  0
 35 54  1  0  0  0  0
 36 55  1  0  0  0  0
M  END
$$$$
