*****_entry_00001_conf_01
 OpenBabel06232217283D

 43 46  0  0  0  0  0  0  0  0999 V2000
  -21.3180   -0.1639  -23.8802 O   0  0  0  0  0  0  0  0  0  0  0  0
  -20.2414    0.4070  -23.7009 C   0  0  0  0  0  0  0  0  0  0  0  0
  -20.2366    1.7821  -23.5171 N   0  0  0  0  0  0  0  0  0  0  0  0
  -19.1488    2.4835  -23.1017 N   0  0  0  0  0  0  0  0  0  0  0  0
  -19.3663    3.6912  -22.6809 C   0  0  0  0  0  0  0  0  0  0  0  0
  -18.2379    4.5358  -22.2138 C   0  0  0  0  0  0  0  0  0  0  0  0
  -18.4048    5.9322  -22.1672 C   0  0  0  0  0  0  0  0  0  0  0  0
  -19.5541    6.5750  -22.5437 O   0  0  0  0  0  0  0  0  0  0  0  0
  -17.3752    6.7571  -21.7396 C   0  0  0  0  0  0  0  0  0  0  0  0
  -16.1634    6.1985  -21.3479 C   0  0  0  0  0  0  0  0  0  0  0  0
  -15.9645    4.8102  -21.3783 C   0  0  0  0  0  0  0  0  0  0  0  0
  -17.0041    3.9448  -21.8141 C   0  0  0  0  0  0  0  0  0  0  0  0
  -16.7335    2.5517  -21.7944 C   0  0  0  0  0  0  0  0  0  0  0  0
  -15.4983    2.0450  -21.3808 C   0  0  0  0  0  0  0  0  0  0  0  0
  -14.4967    2.9111  -20.9681 C   0  0  0  0  0  0  0  0  0  0  0  0
  -14.7303    4.2838  -20.9656 C   0  0  0  0  0  0  0  0  0  0  0  0
  -18.9950   -0.3190  -23.6672 C   0  0  0  0  0  0  0  0  0  0  0  0
  -18.9522   -1.6862  -23.7297 N   0  0  0  0  0  0  0  0  0  0  0  0
  -19.7449   -2.3152  -23.8136 H   0  0  0  0  0  0  0  0  0  0  0  0
  -17.7161   -2.2088  -23.6408 N   0  0  0  0  0  0  0  0  0  0  0  0
  -16.9198   -1.1352  -23.5542 C   0  0  0  0  0  0  0  0  0  0  0  0
  -15.4312   -1.2345  -23.4040 C   0  0  0  0  0  0  0  0  0  0  0  0
  -14.3782    0.1116  -23.3844 S   0  0  0  0  0  0  0  0  0  0  0  0
  -13.0008   -0.8747  -23.1497 C   0  0  0  0  0  0  0  0  0  0  0  0
  -11.6549   -0.2503  -23.0154 C   0  0  0  0  0  0  0  0  0  0  0  0
  -13.3391   -2.2112  -23.0972 C   0  0  0  0  0  0  0  0  0  0  0  0
  -14.7434   -2.4189  -23.2450 C   0  0  0  0  0  0  0  0  0  0  0  0
  -17.6686    0.0611  -23.6099 C   0  0  0  0  0  0  0  0  0  0  0  0
  -21.1436    2.2331  -23.5738 H   0  0  0  0  0  0  0  0  0  0  0  0
  -20.3834    4.1144  -22.6701 H   0  0  0  0  0  0  0  0  0  0  0  0
  -19.7527    6.3257  -23.4715 H   0  0  0  0  0  0  0  0  0  0  0  0
  -17.5186    7.8341  -21.7093 H   0  0  0  0  0  0  0  0  0  0  0  0
  -15.3711    6.8646  -21.0111 H   0  0  0  0  0  0  0  0  0  0  0  0
  -17.4843    1.8246  -22.0899 H   0  0  0  0  0  0  0  0  0  0  0  0
  -15.3238    0.9717  -21.3769 H   0  0  0  0  0  0  0  0  0  0  0  0
  -13.5357    2.5218  -20.6420 H   0  0  0  0  0  0  0  0  0  0  0  0
  -13.9336    4.9457  -20.6302 H   0  0  0  0  0  0  0  0  0  0  0  0
  -11.5235    0.5759  -23.7222 H   0  0  0  0  0  0  0  0  0  0  0  0
  -10.8649   -0.9826  -23.2109 H   0  0  0  0  0  0  0  0  0  0  0  0
  -11.5160    0.1364  -22.0004 H   0  0  0  0  0  0  0  0  0  0  0  0
  -12.6185   -3.0068  -22.9515 H   0  0  0  0  0  0  0  0  0  0  0  0
  -15.2269   -3.3886  -23.2261 H   0  0  0  0  0  0  0  0  0  0  0  0
  -17.2805    1.0688  -23.5908 H   0  0  0  0  0  0  0  0  0  0  0  0
  1  2  2  0  0  0  0
  2  3  1  0  0  0  0
  2 17  1  0  0  0  0
  3  4  1  0  0  0  0
  3 29  1  0  0  0  0
  4  5  2  0  0  0  0
  5  6  1  0  0  0  0
  5 30  1  0  0  0  0
  6  7  2  0  0  0  0
  6 12  1  0  0  0  0
  7  8  1  0  0  0  0
  7  9  1  0  0  0  0
  8 31  1  0  0  0  0
  9 32  1  0  0  0  0
  9 10  2  0  0  0  0
 10 33  1  0  0  0  0
 10 11  1  0  0  0  0
 11 12  2  0  0  0  0
 11 16  1  0  0  0  0
 12 13  1  0  0  0  0
 13 14  2  0  0  0  0
 13 34  1  0  0  0  0
 14 35  1  0  0  0  0
 14 15  1  0  0  0  0
 15 16  2  0  0  0  0
 15 36  1  0  0  0  0
 16 37  1  0  0  0  0
 17 28  2  0  0  0  0
 17 18  1  0  0  0  0
 18 19  1  0  0  0  0
 18 20  1  0  0  0  0
 20 21  2  0  0  0  0
 21 28  1  0  0  0  0
 21 22  1  0  0  0  0
 22 23  1  0  0  0  0
 22 27  2  0  0  0  0
 23 24  1  0  0  0  0
 24 25  1  0  0  0  0
 24 26  2  0  0  0  0
 25 38  1  0  0  0  0
 25 39  1  0  0  0  0
 25 40  1  0  0  0  0
 26 27  1  0  0  0  0
 26 41  1  0  0  0  0
 27 42  1  0  0  0  0
 28 43  1  0  0  0  0
M  END
$$$$
