*****_entry_00001_conf_01
 OpenBabel06232217283D

 48 51  0  0  0  0  0  0  0  0999 V2000
  -28.5658    0.9193  -27.5390 Br  0  0  0  0  0  0  0  0  0  0  0  0
  -27.2173   -0.2127  -26.8356 C   0  0  0  0  0  0  0  0  0  0  0  0
  -26.0051    0.3186  -26.3790 C   0  0  0  0  0  0  0  0  0  0  0  0
  -25.7647    1.6658  -26.4326 O   0  0  0  0  0  0  0  0  0  0  0  0
  -25.0161   -0.5342  -25.8725 C   0  0  0  0  0  0  0  0  0  0  0  0
  -23.7447    0.0270  -25.3706 C   0  0  0  0  0  0  0  0  0  0  0  0
  -22.8533   -0.7205  -24.7996 N   0  0  0  0  0  0  0  0  0  0  0  0
  -21.6581   -0.1278  -24.3546 C   0  0  0  0  0  0  0  0  0  0  0  0
  -20.4607   -0.8320  -24.2019 C   0  0  0  0  0  0  0  0  0  0  0  0
  -19.3113   -0.1843  -23.7353 C   0  0  0  0  0  0  0  0  0  0  0  0
  -18.0504   -0.9575  -23.6786 C   0  0  0  0  0  0  0  0  0  0  0  0
  -18.1126   -2.1634  -23.8817 O   0  0  0  0  0  0  0  0  0  0  0  0
  -16.9360   -0.2194  -23.3257 N   0  0  0  0  0  0  0  0  0  0  0  0
  -15.6061   -0.7096  -23.2286 C   0  0  0  0  0  0  0  0  0  0  0  0
  -14.5268    0.1914  -22.9676 C   0  0  0  0  0  0  0  0  0  0  0  0
  -13.2111   -0.3397  -22.8802 C   0  0  0  0  0  0  0  0  0  0  0  0
  -12.9890   -1.7102  -23.0668 C   0  0  0  0  0  0  0  0  0  0  0  0
  -14.0451   -2.5717  -23.3340 C   0  0  0  0  0  0  0  0  0  0  0  0
  -15.3417   -2.0744  -23.4121 C   0  0  0  0  0  0  0  0  0  0  0  0
  -12.1214    0.4990  -22.5942 C   0  0  0  0  0  0  0  0  0  0  0  0
  -12.2996    1.8640  -22.3868 C   0  0  0  0  0  0  0  0  0  0  0  0
  -13.5724    2.4087  -22.4663 C   0  0  0  0  0  0  0  0  0  0  0  0
  -14.6681    1.5873  -22.7512 C   0  0  0  0  0  0  0  0  0  0  0  0
  -19.3450    1.1699  -23.3935 C   0  0  0  0  0  0  0  0  0  0  0  0
  -20.5406    1.8744  -23.5241 C   0  0  0  0  0  0  0  0  0  0  0  0
  -21.6858    1.2253  -23.9989 C   0  0  0  0  0  0  0  0  0  0  0  0
  -25.2319   -1.9165  -25.8294 C   0  0  0  0  0  0  0  0  0  0  0  0
  -26.4546   -2.4280  -26.2778 C   0  0  0  0  0  0  0  0  0  0  0  0
  -26.7019   -3.8679  -26.2079 N   0  0  0  0  0  0  0  0  0  0  0  0
  -27.8747   -4.2534  -26.2930 O   0  0  0  0  0  0  0  0  0  0  0  0
  -25.7177   -4.6064  -26.0651 O   0  0  0  0  0  0  0  0  0  0  0  0
  -27.4540   -1.5860  -26.7819 C   0  0  0  0  0  0  0  0  0  0  0  0
  -25.7647    2.0173  -25.5221 H   0  0  0  0  0  0  0  0  0  0  0  0
  -23.5987    1.1139  -25.5061 H   0  0  0  0  0  0  0  0  0  0  0  0
  -20.4069   -1.8903  -24.4445 H   0  0  0  0  0  0  0  0  0  0  0  0
  -17.1097    0.7100  -22.9732 H   0  0  0  0  0  0  0  0  0  0  0  0
  -11.9844   -2.1229  -23.0016 H   0  0  0  0  0  0  0  0  0  0  0  0
  -13.8632   -3.6329  -23.4819 H   0  0  0  0  0  0  0  0  0  0  0  0
  -16.1356   -2.7791  -23.6434 H   0  0  0  0  0  0  0  0  0  0  0  0
  -11.1160    0.0885  -22.5206 H   0  0  0  0  0  0  0  0  0  0  0  0
  -11.4458    2.4958  -22.1572 H   0  0  0  0  0  0  0  0  0  0  0  0
  -13.7194    3.4725  -22.2978 H   0  0  0  0  0  0  0  0  0  0  0  0
  -15.6412    2.0666  -22.7810 H   0  0  0  0  0  0  0  0  0  0  0  0
  -18.4472    1.6849  -23.0619 H   0  0  0  0  0  0  0  0  0  0  0  0
  -20.5846    2.9313  -23.2728 H   0  0  0  0  0  0  0  0  0  0  0  0
  -22.6155    1.7808  -24.1013 H   0  0  0  0  0  0  0  0  0  0  0  0
  -24.4595   -2.5755  -25.4355 H   0  0  0  0  0  0  0  0  0  0  0  0
  -28.4008   -1.9937  -27.1315 H   0  0  0  0  0  0  0  0  0  0  0  0
  1  2  1  0  0  0  0
  2  3  2  0  0  0  0
  2 32  1  0  0  0  0
  3  5  1  0  0  0  0
  3  4  1  0  0  0  0
  4 33  1  0  0  0  0
  5  6  1  0  0  0  0
  5 27  2  0  0  0  0
  6  7  2  0  0  0  0
  6 34  1  0  0  0  0
  7  8  1  0  0  0  0
  8  9  2  0  0  0  0
  8 26  1  0  0  0  0
  9 10  1  0  0  0  0
  9 35  1  0  0  0  0
 10 11  1  0  0  0  0
 10 24  2  0  0  0  0
 11 13  1  0  0  0  0
 11 12  2  0  0  0  0
 13 36  1  0  0  0  0
 13 14  1  0  0  0  0
 14 15  2  0  0  0  0
 14 19  1  0  0  0  0
 15 16  1  0  0  0  0
 15 23  1  0  0  0  0
 16 17  2  0  0  0  0
 16 20  1  0  0  0  0
 17 18  1  0  0  0  0
 17 37  1  0  0  0  0
 18 19  2  0  0  0  0
 18 38  1  0  0  0  0
 19 39  1  0  0  0  0
 20 40  1  0  0  0  0
 20 21  2  0  0  0  0
 21 22  1  0  0  0  0
 21 41  1  0  0  0  0
 22 23  2  0  0  0  0
 22 42  1  0  0  0  0
 23 43  1  0  0  0  0
 24 25  1  0  0  0  0
 24 44  1  0  0  0  0
 25 26  2  0  0  0  0
 25 45  1  0  0  0  0
 26 46  1  0  0  0  0
 27 47  1  0  0  0  0
 27 28  1  0  0  0  0
 28 29  1  0  0  0  0
 28 32  2  0  0  0  0
 29 30  1  0  0  0  0
 29 31  1  0  0  0  0
 32 48  1  0  0  0  0
M  END
$$$$
