*****_entry_00001_conf_01
 OpenBabel06232217283D

 53 58  0  0  0  0  0  0  0  0999 V2000
  -21.8189    1.3088  -24.2199 O   0  0  0  0  0  0  0  0  0  0  0  0
  -21.3688    0.1787  -24.0480 C   0  0  0  0  0  0  0  0  0  0  0  0
  -22.1478   -0.9676  -24.0133 N   0  0  0  0  0  0  0  0  0  0  0  0
  -23.4964   -0.8967  -24.2124 N   0  0  0  0  0  0  0  0  0  0  0  0
  -24.1180   -0.0142  -23.4900 C   0  0  0  0  0  0  0  0  0  0  0  0
  -25.5864    0.1833  -23.5861 C   0  0  0  0  0  0  0  0  0  0  0  0
  -26.3406   -0.6593  -24.4220 C   0  0  0  0  0  0  0  0  0  0  0  0
  -25.8104   -1.6869  -25.1563 O   0  0  0  0  0  0  0  0  0  0  0  0
  -27.7109   -0.4836  -24.5533 C   0  0  0  0  0  0  0  0  0  0  0  0
  -28.3486    0.5345  -23.8518 C   0  0  0  0  0  0  0  0  0  0  0  0
  -27.6291    1.3874  -23.0029 C   0  0  0  0  0  0  0  0  0  0  0  0
  -26.2260    1.2271  -22.8461 C   0  0  0  0  0  0  0  0  0  0  0  0
  -25.5785    2.1247  -21.9539 C   0  0  0  0  0  0  0  0  0  0  0  0
  -26.2743    3.1247  -21.2681 C   0  0  0  0  0  0  0  0  0  0  0  0
  -27.6411    3.2637  -21.4479 C   0  0  0  0  0  0  0  0  0  0  0  0
  -28.3125    2.3996  -22.3085 C   0  0  0  0  0  0  0  0  0  0  0  0
  -19.9558   -0.0523  -23.8775 C   0  0  0  0  0  0  0  0  0  0  0  0
  -19.4407   -1.3173  -23.8219 N   0  0  0  0  0  0  0  0  0  0  0  0
  -19.9586   -2.1883  -23.9006 H   0  0  0  0  0  0  0  0  0  0  0  0
  -18.1144   -1.3638  -23.6273 N   0  0  0  0  0  0  0  0  0  0  0  0
  -17.7294   -0.0807  -23.5763 C   0  0  0  0  0  0  0  0  0  0  0  0
  -16.3363    0.3293  -23.3515 C   0  0  0  0  0  0  0  0  0  0  0  0
  -15.2603   -0.6064  -23.2682 C   0  0  0  0  0  0  0  0  0  0  0  0
  -14.0093   -0.0679  -23.0761 C   0  0  0  0  0  0  0  0  0  0  0  0
  -13.7504    1.2844  -22.9652 C   0  0  0  0  0  0  0  0  0  0  0  0
  -14.7657    2.2227  -23.0335 C   0  0  0  0  0  0  0  0  0  0  0  0
  -16.0623    1.7193  -23.2273 C   0  0  0  0  0  0  0  0  0  0  0  0
  -12.2931    1.5216  -22.7668 C   0  0  0  0  0  0  0  0  0  0  0  0
  -11.6742    0.0904  -22.7703 C   0  0  0  0  0  0  0  0  0  0  0  0
  -12.8448   -0.8074  -22.9726 C   0  0  0  0  0  0  0  0  0  0  0  0
  -12.8573   -2.1915  -23.0552 C   0  0  0  0  0  0  0  0  0  0  0  0
  -14.1079   -2.7897  -23.2565 C   0  0  0  0  0  0  0  0  0  0  0  0
  -15.2851   -2.0223  -23.3664 C   0  0  0  0  0  0  0  0  0  0  0  0
  -18.8597    0.7747  -23.7317 C   0  0  0  0  0  0  0  0  0  0  0  0
  -21.7151   -1.8701  -23.8691 H   0  0  0  0  0  0  0  0  0  0  0  0
  -23.5513    0.6134  -22.7868 H   0  0  0  0  0  0  0  0  0  0  0  0
  -25.5022   -2.3906  -24.5412 H   0  0  0  0  0  0  0  0  0  0  0  0
  -28.2823   -1.1402  -25.2047 H   0  0  0  0  0  0  0  0  0  0  0  0
  -29.4239    0.6529  -23.9741 H   0  0  0  0  0  0  0  0  0  0  0  0
  -24.5120    2.0662  -21.7615 H   0  0  0  0  0  0  0  0  0  0  0  0
  -25.7438    3.7919  -20.5929 H   0  0  0  0  0  0  0  0  0  0  0  0
  -28.1875    4.0400  -20.9185 H   0  0  0  0  0  0  0  0  0  0  0  0
  -29.3871    2.5234  -22.4327 H   0  0  0  0  0  0  0  0  0  0  0  0
  -14.5671    3.2837  -22.9362 H   0  0  0  0  0  0  0  0  0  0  0  0
  -16.8787    2.4384  -23.2636 H   0  0  0  0  0  0  0  0  0  0  0  0
  -12.1103    2.0276  -21.8134 H   0  0  0  0  0  0  0  0  0  0  0  0
  -11.8869    2.1275  -23.5833 H   0  0  0  0  0  0  0  0  0  0  0  0
  -11.1806   -0.1268  -21.8175 H   0  0  0  0  0  0  0  0  0  0  0  0
  -10.9542   -0.0246  -23.5870 H   0  0  0  0  0  0  0  0  0  0  0  0
  -11.9482   -2.7750  -22.9679 H   0  0  0  0  0  0  0  0  0  0  0  0
  -14.1755   -3.8733  -23.3264 H   0  0  0  0  0  0  0  0  0  0  0  0
  -16.2267   -2.5434  -23.5205 H   0  0  0  0  0  0  0  0  0  0  0  0
  -18.8458    1.8545  -23.7292 H   0  0  0  0  0  0  0  0  0  0  0  0
  1  2  2  0  0  0  0
  2 17  1  0  0  0  0
  2  3  1  0  0  0  0
  3 35  1  0  0  0  0
  3  4  1  0  0  0  0
  4  5  2  0  0  0  0
  5  6  1  0  0  0  0
  5 36  1  0  0  0  0
  6  7  2  0  0  0  0
  6 12  1  0  0  0  0
  7  8  1  0  0  0  0
  7  9  1  0  0  0  0
  8 37  1  0  0  0  0
  9 10  2  0  0  0  0
  9 38  1  0  0  0  0
 10 11  1  0  0  0  0
 10 39  1  0  0  0  0
 11 12  2  0  0  0  0
 11 16  1  0  0  0  0
 12 13  1  0  0  0  0
 13 14  2  0  0  0  0
 13 40  1  0  0  0  0
 14 15  1  0  0  0  0
 14 41  1  0  0  0  0
 15 16  2  0  0  0  0
 15 42  1  0  0  0  0
 16 43  1  0  0  0  0
 17 18  1  0  0  0  0
 17 34  2  0  0  0  0
 18 19  1  0  0  0  0
 18 20  1  0  0  0  0
 20 21  2  0  0  0  0
 21 34  1  0  0  0  0
 21 22  1  0  0  0  0
 22 23  2  0  0  0  0
 22 27  1  0  0  0  0
 23 24  1  0  0  0  0
 23 33  1  0  0  0  0
 24 25  2  0  0  0  0
 24 30  1  0  0  0  0
 25 26  1  0  0  0  0
 25 28  1  0  0  0  0
 26 27  2  0  0  0  0
 26 44  1  0  0  0  0
 27 45  1  0  0  0  0
 28 29  1  0  0  0  0
 28 46  1  0  0  0  0
 28 47  1  0  0  0  0
 29 30  1  0  0  0  0
 29 49  1  0  0  0  0
 29 48  1  0  0  0  0
 30 31  2  0  0  0  0
 31 32  1  0  0  0  0
 31 50  1  0  0  0  0
 32 33  2  0  0  0  0
 32 51  1  0  0  0  0
 33 52  1  0  0  0  0
 34 53  1  0  0  0  0
M  END
$$$$
