*****_entry_00001_conf_01
 OpenBabel06232217283D

 43 46  0  0  0  0  0  0  0  0999 V2000
  -25.5931   -3.0470  -26.1749 Br  0  0  0  0  0  0  0  0  0  0  0  0
  -25.2720   -1.3223  -25.4402 C   0  0  0  0  0  0  0  0  0  0  0  0
  -26.3056   -0.3787  -25.3037 C   0  0  0  0  0  0  0  0  0  0  0  0
  -27.5542   -0.7662  -25.7113 O   0  0  0  0  0  0  0  0  0  0  0  0
  -28.6097    0.1798  -25.6045 C   0  0  0  0  0  0  0  0  0  0  0  0
  -26.0009    0.8813  -24.7763 C   0  0  0  0  0  0  0  0  0  0  0  0
  -24.6918    1.1920  -24.3929 C   0  0  0  0  0  0  0  0  0  0  0  0
  -23.6788    0.2379  -24.5167 C   0  0  0  0  0  0  0  0  0  0  0  0
  -22.2951    0.6032  -24.1245 C   0  0  0  0  0  0  0  0  0  0  0  0
  -22.1006    1.7228  -23.6673 O   0  0  0  0  0  0  0  0  0  0  0  0
  -21.3681   -0.4086  -24.2851 N   0  0  0  0  0  0  0  0  0  0  0  0
  -19.9735   -0.3123  -24.1024 C   0  0  0  0  0  0  0  0  0  0  0  0
  -19.4492    0.9359  -23.7612 C   0  0  0  0  0  0  0  0  0  0  0  0
  -18.0773    1.0909  -23.5417 C   0  0  0  0  0  0  0  0  0  0  0  0
  -17.6713    2.3598  -23.2066 O   0  0  0  0  0  0  0  0  0  0  0  0
  -17.1824    0.0119  -23.6572 C   0  0  0  0  0  0  0  0  0  0  0  0
  -15.7387    0.2084  -23.4151 C   0  0  0  0  0  0  0  0  0  0  0  0
  -14.5872   -1.0486  -23.6459 S   0  0  0  0  0  0  0  0  0  0  0  0
  -13.3159    0.0064  -23.1747 C   0  0  0  0  0  0  0  0  0  0  0  0
  -13.8529    1.2599  -22.8838 C   0  0  0  0  0  0  0  0  0  0  0  0
  -15.2248    1.3699  -23.0490 N   0  0  0  0  0  0  0  0  0  0  0  0
  -12.9859    2.2873  -22.4599 C   0  0  0  0  0  0  0  0  0  0  0  0
  -11.6148    2.0355  -22.3423 C   0  0  0  0  0  0  0  0  0  0  0  0
  -11.1004    0.7792  -22.6463 C   0  0  0  0  0  0  0  0  0  0  0  0
  -11.9401   -0.2560  -23.0682 C   0  0  0  0  0  0  0  0  0  0  0  0
  -17.7291   -1.2388  -23.9848 C   0  0  0  0  0  0  0  0  0  0  0  0
  -19.1051   -1.3977  -24.2070 C   0  0  0  0  0  0  0  0  0  0  0  0
  -23.9639   -1.0215  -25.0488 C   0  0  0  0  0  0  0  0  0  0  0  0
  -29.5226   -0.2950  -25.9768 H   0  0  0  0  0  0  0  0  0  0  0  0
  -28.4164    1.0605  -26.2256 H   0  0  0  0  0  0  0  0  0  0  0  0
  -28.7821    0.4603  -24.5603 H   0  0  0  0  0  0  0  0  0  0  0  0
  -26.7565    1.6514  -24.6567 H   0  0  0  0  0  0  0  0  0  0  0  0
  -24.4630    2.1809  -23.9986 H   0  0  0  0  0  0  0  0  0  0  0  0
  -21.7251   -1.3356  -24.4838 H   0  0  0  0  0  0  0  0  0  0  0  0
  -20.0904    1.8076  -23.6648 H   0  0  0  0  0  0  0  0  0  0  0  0
  -17.7711    2.9253  -24.0038 H   0  0  0  0  0  0  0  0  0  0  0  0
  -13.3888    3.2673  -22.2234 H   0  0  0  0  0  0  0  0  0  0  0  0
  -10.9489    2.8293  -22.0115 H   0  0  0  0  0  0  0  0  0  0  0  0
  -10.0315    0.5972  -22.5535 H   0  0  0  0  0  0  0  0  0  0  0  0
  -11.5380   -1.2368  -23.3037 H   0  0  0  0  0  0  0  0  0  0  0  0
  -17.1060   -2.1269  -24.0612 H   0  0  0  0  0  0  0  0  0  0  0  0
  -19.4688   -2.3946  -24.4403 H   0  0  0  0  0  0  0  0  0  0  0  0
  -23.1707   -1.7507  -25.1920 H   0  0  0  0  0  0  0  0  0  0  0  0
  1  2  1  0  0  0  0
  2 28  2  0  0  0  0
  2  3  1  0  0  0  0
  3  4  1  0  0  0  0
  3  6  2  0  0  0  0
  4  5  1  0  0  0  0
  5 29  1  0  0  0  0
  5 30  1  0  0  0  0
  5 31  1  0  0  0  0
  6  7  1  0  0  0  0
  6 32  1  0  0  0  0
  7  8  2  0  0  0  0
  7 33  1  0  0  0  0
  8 28  1  0  0  0  0
  8  9  1  0  0  0  0
  9 10  2  0  0  0  0
  9 11  1  0  0  0  0
 11 12  1  0  0  0  0
 11 34  1  0  0  0  0
 12 27  2  0  0  0  0
 12 13  1  0  0  0  0
 13 14  2  0  0  0  0
 13 35  1  0  0  0  0
 14 15  1  0  0  0  0
 14 16  1  0  0  0  0
 15 36  1  0  0  0  0
 16 17  1  0  0  0  0
 16 26  2  0  0  0  0
 17 18  1  0  0  0  0
 17 21  2  0  0  0  0
 18 19  1  0  0  0  0
 19 20  2  0  0  0  0
 19 25  1  0  0  0  0
 20 21  1  0  0  0  0
 20 22  1  0  0  0  0
 22 37  1  0  0  0  0
 22 23  2  0  0  0  0
 23 24  1  0  0  0  0
 23 38  1  0  0  0  0
 24 25  2  0  0  0  0
 24 39  1  0  0  0  0
 25 40  1  0  0  0  0
 26 27  1  0  0  0  0
 26 41  1  0  0  0  0
 27 42  1  0  0  0  0
 28 43  1  0  0  0  0
M  END
$$$$
