*****_entry_00001_conf_01
 OpenBabel06232217283D

 46 50  0  0  0  0  0  0  0  0999 V2000
   -9.6985   -0.3114  -22.7671 Br  0  0  0  0  0  0  0  0  0  0  0  0
  -11.4488    0.4075  -22.8046 C   0  0  0  0  0  0  0  0  0  0  0  0
  -12.5128   -0.4167  -23.1776 C   0  0  0  0  0  0  0  0  0  0  0  0
  -13.8016    0.1416  -23.1801 C   0  0  0  0  0  0  0  0  0  0  0  0
  -15.3008   -0.6008  -23.5850 S   0  0  0  0  0  0  0  0  0  0  0  0
  -16.1094    0.8563  -23.2212 C   0  0  0  0  0  0  0  0  0  0  0  0
  -17.4602    0.7596  -23.3673 N   0  0  0  0  0  0  0  0  0  0  0  0
  -18.3474    1.7940  -23.1642 C   0  0  0  0  0  0  0  0  0  0  0  0
  -18.0272    2.9262  -22.8206 O   0  0  0  0  0  0  0  0  0  0  0  0
  -19.7537    1.4113  -23.3945 C   0  0  0  0  0  0  0  0  0  0  0  0
  -20.9188    2.1455  -23.1631 C   0  0  0  0  0  0  0  0  0  0  0  0
  -20.9800    3.5090  -22.5418 C   0  0  0  0  0  0  0  0  0  0  0  0
  -22.0857    1.4258  -23.6287 C   0  0  0  0  0  0  0  0  0  0  0  0
  -23.4865    1.8318  -23.6717 C   0  0  0  0  0  0  0  0  0  0  0  0
  -23.8645    2.9357  -23.2887 O   0  0  0  0  0  0  0  0  0  0  0  0
  -24.3453    0.8637  -24.1951 N   0  0  0  0  0  0  0  0  0  0  0  0
  -25.7583    1.1803  -24.3602 C   0  0  0  0  0  0  0  0  0  0  0  0
  -26.6364    0.3500  -23.4450 C   0  0  0  0  0  0  0  0  0  0  0  0
  -26.7349    0.5650  -22.0598 C   0  0  0  0  0  0  0  0  0  0  0  0
  -25.9146    1.8595  -21.2624 Cl  0  0  0  0  0  0  0  0  0  0  0  0
  -27.5243   -0.2711  -21.2620 C   0  0  0  0  0  0  0  0  0  0  0  0
  -28.2345   -1.3250  -21.8330 C   0  0  0  0  0  0  0  0  0  0  0  0
  -28.1606   -1.5439  -23.2044 C   0  0  0  0  0  0  0  0  0  0  0  0
  -27.3683   -0.7164  -24.0026 C   0  0  0  0  0  0  0  0  0  0  0  0
  -23.8773   -0.3757  -24.5877 C   0  0  0  0  0  0  0  0  0  0  0  0
  -22.6442   -0.7644  -24.5569 N   0  0  0  0  0  0  0  0  0  0  0  0
  -21.7802    0.1687  -24.0936 C   0  0  0  0  0  0  0  0  0  0  0  0
  -20.1183   -0.1407  -24.0484 S   0  0  0  0  0  0  0  0  0  0  0  0
  -15.3684    1.8650  -22.8526 N   0  0  0  0  0  0  0  0  0  0  0  0
  -14.0399    1.4725  -22.8241 C   0  0  0  0  0  0  0  0  0  0  0  0
  -12.9417    2.2813  -22.4666 C   0  0  0  0  0  0  0  0  0  0  0  0
  -11.6504    1.7397  -22.4578 C   0  0  0  0  0  0  0  0  0  0  0  0
  -12.3578   -1.4557  -23.4508 H   0  0  0  0  0  0  0  0  0  0  0  0
  -17.8223   -0.1457  -23.6270 H   0  0  0  0  0  0  0  0  0  0  0  0
  -20.1150    3.7137  -21.9063 H   0  0  0  0  0  0  0  0  0  0  0  0
  -21.8573    3.6009  -21.8933 H   0  0  0  0  0  0  0  0  0  0  0  0
  -21.0368    4.2778  -23.3180 H   0  0  0  0  0  0  0  0  0  0  0  0
  -26.0634    1.0088  -25.3999 H   0  0  0  0  0  0  0  0  0  0  0  0
  -25.9023    2.2517  -24.1854 H   0  0  0  0  0  0  0  0  0  0  0  0
  -27.5903   -0.1056  -20.1889 H   0  0  0  0  0  0  0  0  0  0  0  0
  -28.8456   -1.9724  -21.2089 H   0  0  0  0  0  0  0  0  0  0  0  0
  -28.7165   -2.3624  -23.6563 H   0  0  0  0  0  0  0  0  0  0  0  0
  -27.3250   -0.9137  -25.0738 H   0  0  0  0  0  0  0  0  0  0  0  0
  -24.6510   -1.0701  -24.9453 H   0  0  0  0  0  0  0  0  0  0  0  0
  -13.1099    3.3189  -22.1937 H   0  0  0  0  0  0  0  0  0  0  0  0
  -10.8125    2.3715  -22.1728 H   0  0  0  0  0  0  0  0  0  0  0  0
  1  2  1  0  0  0  0
  2  3  2  0  0  0  0
  2 32  1  0  0  0  0
  3  4  1  0  0  0  0
  3 33  1  0  0  0  0
  4  5  1  0  0  0  0
  4 30  2  0  0  0  0
  5  6  1  0  0  0  0
  6  7  1  0  0  0  0
  6 29  2  0  0  0  0
  7  8  1  0  0  0  0
  7 34  1  0  0  0  0
  8 10  1  0  0  0  0
  8  9  2  0  0  0  0
 10 11  2  0  0  0  0
 10 28  1  0  0  0  0
 11 13  1  0  0  0  0
 11 12  1  0  0  0  0
 12 35  1  0  0  0  0
 12 36  1  0  0  0  0
 12 37  1  0  0  0  0
 13 14  1  0  0  0  0
 13 27  2  0  0  0  0
 14 15  2  0  0  0  0
 14 16  1  0  0  0  0
 16 17  1  0  0  0  0
 16 25  1  0  0  0  0
 17 18  1  0  0  0  0
 17 38  1  0  0  0  0
 17 39  1  0  0  0  0
 18 24  2  0  0  0  0
 18 19  1  0  0  0  0
 19 20  1  0  0  0  0
 19 21  2  0  0  0  0
 21 22  1  0  0  0  0
 21 40  1  0  0  0  0
 22 23  2  0  0  0  0
 22 41  1  0  0  0  0
 23 24  1  0  0  0  0
 23 42  1  0  0  0  0
 24 43  1  0  0  0  0
 25 44  1  0  0  0  0
 25 26  2  0  0  0  0
 26 27  1  0  0  0  0
 27 28  1  0  0  0  0
 29 30  1  0  0  0  0
 30 31  1  0  0  0  0
 31 45  1  0  0  0  0
 31 32  2  0  0  0  0
 32 46  1  0  0  0  0
M  END
$$$$
