*****_entry_00001_conf_01
 OpenBabel06232217283D

 39 42  0  0  0  0  0  0  0  0999 V2000
  -14.4527   -2.3828  -23.0738 Cl  0  0  0  0  0  0  0  0  0  0  0  0
  -15.9292   -1.5191  -23.3254 C   0  0  0  0  0  0  0  0  0  0  0  0
  -16.1261   -0.1778  -22.9612 C   0  0  0  0  0  0  0  0  0  0  0  0
  -15.1404    0.7009  -22.2548 C   0  0  0  0  0  0  0  0  0  0  0  0
  -14.0190    0.2438  -22.0559 O   0  0  0  0  0  0  0  0  0  0  0  0
  -15.5556    1.9728  -21.9114 N   0  0  0  0  0  0  0  0  0  0  0  0
  -14.7620    3.0235  -21.4021 C   0  0  0  0  0  0  0  0  0  0  0  0
  -15.2680    4.2812  -21.0571 C   0  0  0  0  0  0  0  0  0  0  0  0
  -14.4422    5.2773  -20.5036 C   0  0  0  0  0  0  0  0  0  0  0  0
  -14.9892    6.5708  -20.1034 C   0  0  0  0  0  0  0  0  0  0  0  0
  -14.1421    7.4409  -19.4678 O   0  0  0  0  0  0  0  0  0  0  0  0
  -14.9043    8.5493  -19.2557 C   0  0  0  0  0  0  0  0  0  0  0  0
  -16.1672    8.3001  -19.7668 C   0  0  0  0  0  0  0  0  0  0  0  0
  -16.2145    7.0349  -20.3022 N   0  0  0  0  0  0  0  0  0  0  0  0
  -17.1421    9.3018  -19.6759 C   0  0  0  0  0  0  0  0  0  0  0  0
  -16.7870   10.5167  -19.0678 C   0  0  0  0  0  0  0  0  0  0  0  0
  -15.4967   10.7258  -18.5628 C   0  0  0  0  0  0  0  0  0  0  0  0
  -14.5126    9.7339  -18.6453 C   0  0  0  0  0  0  0  0  0  0  0  0
  -13.0823    4.9861  -20.3201 C   0  0  0  0  0  0  0  0  0  0  0  0
  -12.1911    5.8831  -19.7898 O   0  0  0  0  0  0  0  0  0  0  0  0
  -12.5639    3.7408  -20.6654 C   0  0  0  0  0  0  0  0  0  0  0  0
  -13.4033    2.7601  -21.1965 C   0  0  0  0  0  0  0  0  0  0  0  0
  -17.3618    0.4291  -23.2690 C   0  0  0  0  0  0  0  0  0  0  0  0
  -18.3737   -0.2881  -23.9031 C   0  0  0  0  0  0  0  0  0  0  0  0
  -19.8726    0.4754  -24.2584 Cl  0  0  0  0  0  0  0  0  0  0  0  0
  -18.1785   -1.6203  -24.2458 C   0  0  0  0  0  0  0  0  0  0  0  0
  -16.9575   -2.2330  -23.9603 C   0  0  0  0  0  0  0  0  0  0  0  0
  -16.5439    2.1781  -22.0043 H   0  0  0  0  0  0  0  0  0  0  0  0
  -16.3234    4.5012  -21.1870 H   0  0  0  0  0  0  0  0  0  0  0  0
  -18.1399    9.1402  -20.0680 H   0  0  0  0  0  0  0  0  0  0  0  0
  -17.5282   11.3098  -18.9885 H   0  0  0  0  0  0  0  0  0  0  0  0
  -15.2525   11.6791  -18.0971 H   0  0  0  0  0  0  0  0  0  0  0  0
  -13.5094    9.8747  -18.2629 H   0  0  0  0  0  0  0  0  0  0  0  0
  -12.0180    5.6330  -18.8566 H   0  0  0  0  0  0  0  0  0  0  0  0
  -11.5078    3.5340  -20.5134 H   0  0  0  0  0  0  0  0  0  0  0  0
  -12.9754    1.7940  -21.4517 H   0  0  0  0  0  0  0  0  0  0  0  0
  -17.5368    1.4718  -23.0046 H   0  0  0  0  0  0  0  0  0  0  0  0
  -18.9665   -2.1845  -24.7390 H   0  0  0  0  0  0  0  0  0  0  0  0
  -16.8117   -3.2740  -24.2437 H   0  0  0  0  0  0  0  0  0  0  0  0
  1  2  1  0  0  0  0
  2  3  2  0  0  0  0
  2 27  1  0  0  0  0
  3 23  1  0  0  0  0
  3  4  1  0  0  0  0
  4  5  2  0  0  0  0
  4  6  1  0  0  0  0
  6 28  1  0  0  0  0
  6  7  1  0  0  0  0
  7  8  2  0  0  0  0
  7 22  1  0  0  0  0
  8  9  1  0  0  0  0
  8 29  1  0  0  0  0
  9 10  1  0  0  0  0
  9 19  2  0  0  0  0
 10 14  2  0  0  0  0
 10 11  1  0  0  0  0
 11 12  1  0  0  0  0
 12 13  2  0  0  0  0
 12 18  1  0  0  0  0
 13 14  1  0  0  0  0
 13 15  1  0  0  0  0
 15 16  2  0  0  0  0
 15 30  1  0  0  0  0
 16 31  1  0  0  0  0
 16 17  1  0  0  0  0
 17 18  2  0  0  0  0
 17 32  1  0  0  0  0
 18 33  1  0  0  0  0
 19 20  1  0  0  0  0
 19 21  1  0  0  0  0
 20 34  1  0  0  0  0
 21 22  2  0  0  0  0
 21 35  1  0  0  0  0
 22 36  1  0  0  0  0
 23 37  1  0  0  0  0
 23 24  2  0  0  0  0
 24 25  1  0  0  0  0
 24 26  1  0  0  0  0
 26 38  1  0  0  0  0
 26 27  2  0  0  0  0
 27 39  1  0  0  0  0
M  END
$$$$
