*****_entry_00001_conf_01
 OpenBabel06232217283D

 52 56  0  0  0  0  0  0  0  0999 V2000
  -27.8931   -4.8652  -24.3667 F   0  0  0  0  0  0  0  0  0  0  0  0
  -27.8260   -4.0280  -25.4391 C   0  0  0  0  0  0  0  0  0  0  0  0
  -26.6527   -4.3187  -26.0661 F   0  0  0  0  0  0  0  0  0  0  0  0
  -28.8127   -4.4296  -26.2875 F   0  0  0  0  0  0  0  0  0  0  0  0
  -27.9383   -2.5678  -25.0753 C   0  0  0  0  0  0  0  0  0  0  0  0
  -26.7932   -1.7816  -24.8562 C   0  0  0  0  0  0  0  0  0  0  0  0
  -26.8996   -0.4237  -24.5146 C   0  0  0  0  0  0  0  0  0  0  0  0
  -25.6988    0.3755  -24.2871 C   0  0  0  0  0  0  0  0  0  0  0  0
  -24.4315   -0.1706  -24.3204 N   0  0  0  0  0  0  0  0  0  0  0  0
  -23.6637    0.8656  -24.0658 C   0  0  0  0  0  0  0  0  0  0  0  0
  -22.2106    0.9502  -23.9657 C   0  0  0  0  0  0  0  0  0  0  0  0
  -21.4426   -0.2257  -24.0331 C   0  0  0  0  0  0  0  0  0  0  0  0
  -20.0497   -0.1669  -23.9429 C   0  0  0  0  0  0  0  0  0  0  0  0
  -19.2957   -1.3353  -24.0052 N   0  0  0  0  0  0  0  0  0  0  0  0
  -17.9311   -1.3682  -23.9351 C   0  0  0  0  0  0  0  0  0  0  0  0
  -17.3563   -2.4551  -23.9617 O   0  0  0  0  0  0  0  0  0  0  0  0
  -17.2834   -0.1482  -23.8253 N   0  0  0  0  0  0  0  0  0  0  0  0
  -15.8258   -0.1540  -23.7344 C   0  0  0  0  0  0  0  0  0  0  0  0
  -15.3356    0.5653  -22.4735 C   0  0  0  0  0  0  0  0  0  0  0  0
  -13.8501    0.8200  -22.5177 C   0  0  0  0  0  0  0  0  0  0  0  0
  -13.3289    2.0520  -22.1006 C   0  0  0  0  0  0  0  0  0  0  0  0
  -11.9557    2.2937  -22.1596 C   0  0  0  0  0  0  0  0  0  0  0  0
  -11.0933    1.3098  -22.6400 C   0  0  0  0  0  0  0  0  0  0  0  0
  -11.6034    0.0840  -23.0642 C   0  0  0  0  0  0  0  0  0  0  0  0
  -12.9761   -0.1602  -23.0062 C   0  0  0  0  0  0  0  0  0  0  0  0
  -17.9367    1.0737  -23.6820 C   0  0  0  0  0  0  0  0  0  0  0  0
  -17.3658    2.1406  -23.4688 O   0  0  0  0  0  0  0  0  0  0  0  0
  -19.4087    1.0542  -23.7808 C   0  0  0  0  0  0  0  0  0  0  0  0
  -20.1542    2.2328  -23.7071 C   0  0  0  0  0  0  0  0  0  0  0  0
  -21.5486    2.1789  -23.8010 C   0  0  0  0  0  0  0  0  0  0  0  0
  -24.3698    2.0183  -23.8787 O   0  0  0  0  0  0  0  0  0  0  0  0
  -25.7147    1.6931  -24.0266 N   0  0  0  0  0  0  0  0  0  0  0  0
  -28.1772    0.1427  -24.3957 C   0  0  0  0  0  0  0  0  0  0  0  0
  -29.3218   -0.6270  -24.6127 C   0  0  0  0  0  0  0  0  0  0  0  0
  -29.2032   -1.9742  -24.9503 C   0  0  0  0  0  0  0  0  0  0  0  0
  -25.8068   -2.2366  -24.9515 H   0  0  0  0  0  0  0  0  0  0  0  0
  -21.9416   -1.1855  -24.1582 H   0  0  0  0  0  0  0  0  0  0  0  0
  -19.7442   -2.2383  -24.0993 H   0  0  0  0  0  0  0  0  0  0  0  0
  -15.4090    0.3259  -24.6288 H   0  0  0  0  0  0  0  0  0  0  0  0
  -15.4683   -1.1912  -23.7408 H   0  0  0  0  0  0  0  0  0  0  0  0
  -15.5790   -0.0235  -21.5798 H   0  0  0  0  0  0  0  0  0  0  0  0
  -15.8657    1.5180  -22.3471 H   0  0  0  0  0  0  0  0  0  0  0  0
  -13.9906    2.8311  -21.7272 H   0  0  0  0  0  0  0  0  0  0  0  0
  -11.5589    3.2507  -21.8312 H   0  0  0  0  0  0  0  0  0  0  0  0
  -10.0241    1.4987  -22.6851 H   0  0  0  0  0  0  0  0  0  0  0  0
  -10.9316   -0.6827  -23.4414 H   0  0  0  0  0  0  0  0  0  0  0  0
  -13.3604   -1.1205  -23.3444 H   0  0  0  0  0  0  0  0  0  0  0  0
  -19.6557    3.1919  -23.5770 H   0  0  0  0  0  0  0  0  0  0  0  0
  -22.1082    3.1116  -23.7409 H   0  0  0  0  0  0  0  0  0  0  0  0
  -28.2947    1.1929  -24.1325 H   0  0  0  0  0  0  0  0  0  0  0  0
  -30.3059   -0.1733  -24.5174 H   0  0  0  0  0  0  0  0  0  0  0  0
  -30.1036   -2.5648  -25.1162 H   0  0  0  0  0  0  0  0  0  0  0  0
  1  2  1  0  0  0  0
  2  3  1  0  0  0  0
  2  5  1  0  0  0  0
  2  4  1  0  0  0  0
  5  6  2  0  0  0  0
  5 35  1  0  0  0  0
  6  7  1  0  0  0  0
  6 36  1  0  0  0  0
  7  8  1  0  0  0  0
  7 33  2  0  0  0  0
  8  9  1  0  0  0  0
  8 32  2  0  0  0  0
  9 10  2  0  0  0  0
 10 11  1  0  0  0  0
 10 31  1  0  0  0  0
 11 12  2  0  0  0  0
 11 30  1  0  0  0  0
 12 13  1  0  0  0  0
 12 37  1  0  0  0  0
 13 14  1  0  0  0  0
 13 28  2  0  0  0  0
 14 15  1  0  0  0  0
 14 38  1  0  0  0  0
 15 16  2  0  0  0  0
 15 17  1  0  0  0  0
 17 18  1  0  0  0  0
 17 26  1  0  0  0  0
 18 40  1  0  0  0  0
 18 19  1  0  0  0  0
 18 39  1  0  0  0  0
 19 41  1  0  0  0  0
 19 20  1  0  0  0  0
 19 42  1  0  0  0  0
 20 25  2  0  0  0  0
 20 21  1  0  0  0  0
 21 22  2  0  0  0  0
 21 43  1  0  0  0  0
 22 23  1  0  0  0  0
 22 44  1  0  0  0  0
 23 24  2  0  0  0  0
 23 45  1  0  0  0  0
 24 25  1  0  0  0  0
 24 46  1  0  0  0  0
 25 47  1  0  0  0  0
 26 27  2  0  0  0  0
 26 28  1  0  0  0  0
 28 29  1  0  0  0  0
 29 30  2  0  0  0  0
 29 48  1  0  0  0  0
 30 49  1  0  0  0  0
 31 32  1  0  0  0  0
 33 34  1  0  0  0  0
 33 50  1  0  0  0  0
 34 35  2  0  0  0  0
 34 51  1  0  0  0  0
 35 52  1  0  0  0  0
M  END
$$$$
