*****_entry_00001_conf_01
 OpenBabel06232217283D

 53 56  0  0  0  0  0  0  0  0999 V2000
  -20.4845    8.2817  -19.1642 Cl  0  0  0  0  0  0  0  0  0  0  0  0
  -18.9840    9.1374  -19.0268 C   0  0  0  0  0  0  0  0  0  0  0  0
  -17.8473    8.7234  -19.7446 C   0  0  0  0  0  0  0  0  0  0  0  0
  -17.9468    7.5710  -20.5578 N   0  0  0  0  0  0  0  0  0  0  0  0
  -17.2136    7.2529  -21.6871 C   0  0  0  0  0  0  0  0  0  0  0  0
  -16.3682    7.9619  -22.2267 O   0  0  0  0  0  0  0  0  0  0  0  0
  -17.5100    5.8583  -22.2137 C   0  0  0  0  0  0  0  0  0  0  0  0
  -15.9660    5.0137  -22.6788 S   0  0  0  0  0  0  0  0  0  0  0  0
  -16.5161    3.3879  -22.8470 C   0  0  0  0  0  0  0  0  0  0  0  0
  -15.9702    2.1284  -22.7466 C   0  0  0  0  0  0  0  0  0  0  0  0
  -14.3258    1.7296  -22.3732 S   0  0  0  0  0  0  0  0  0  0  0  0
  -13.5406    2.5112  -23.3121 O   0  0  0  0  0  0  0  0  0  0  0  0
  -14.2044    1.9208  -20.9403 O   0  0  0  0  0  0  0  0  0  0  0  0
  -14.1226    0.0117  -22.7445 C   0  0  0  0  0  0  0  0  0  0  0  0
  -12.8848   -0.4525  -23.2013 C   0  0  0  0  0  0  0  0  0  0  0  0
  -12.7123   -1.8133  -23.4547 C   0  0  0  0  0  0  0  0  0  0  0  0
  -13.7666   -2.7030  -23.2413 C   0  0  0  0  0  0  0  0  0  0  0  0
  -14.9958   -2.2373  -22.7711 C   0  0  0  0  0  0  0  0  0  0  0  0
  -15.1772   -0.8778  -22.5156 C   0  0  0  0  0  0  0  0  0  0  0  0
  -16.9327    1.1733  -23.0395 N   0  0  0  0  0  0  0  0  0  0  0  0
  -18.0500    1.8329  -23.2991 C   0  0  0  0  0  0  0  0  0  0  0  0
  -19.3281    1.2372  -23.7067 C   0  0  0  0  0  0  0  0  0  0  0  0
  -20.4400    2.0719  -23.8983 C   0  0  0  0  0  0  0  0  0  0  0  0
  -21.6817    1.5455  -24.2634 C   0  0  0  0  0  0  0  0  0  0  0  0
  -21.8292    0.1732  -24.4447 C   0  0  0  0  0  0  0  0  0  0  0  0
  -20.7360   -0.6705  -24.2647 C   0  0  0  0  0  0  0  0  0  0  0  0
  -19.4930   -0.1433  -23.8989 C   0  0  0  0  0  0  0  0  0  0  0  0
  -17.8317    3.1841  -23.1530 N   0  0  0  0  0  0  0  0  0  0  0  0
  -18.5114    3.9166  -23.2886 H   0  0  0  0  0  0  0  0  0  0  0  0
  -16.6688    9.4583  -19.6009 C   0  0  0  0  0  0  0  0  0  0  0  0
  -16.6230   10.5738  -18.7555 C   0  0  0  0  0  0  0  0  0  0  0  0
  -17.7513   10.9724  -18.0314 C   0  0  0  0  0  0  0  0  0  0  0  0
  -17.6925   12.1812  -17.1458 C   0  0  0  0  0  0  0  0  0  0  0  0
  -18.9402   10.2534  -18.1852 C   0  0  0  0  0  0  0  0  0  0  0  0
  -18.6968    6.9307  -20.3062 H   0  0  0  0  0  0  0  0  0  0  0  0
  -18.1775    5.9483  -23.0727 H   0  0  0  0  0  0  0  0  0  0  0  0
  -18.0193    5.2885  -21.4276 H   0  0  0  0  0  0  0  0  0  0  0  0
  -12.0578    0.2352  -23.3641 H   0  0  0  0  0  0  0  0  0  0  0  0
  -11.7550   -2.1819  -23.8154 H   0  0  0  0  0  0  0  0  0  0  0  0
  -13.6284   -3.7636  -23.4378 H   0  0  0  0  0  0  0  0  0  0  0  0
  -15.8111   -2.9362  -22.5997 H   0  0  0  0  0  0  0  0  0  0  0  0
  -16.1351   -0.5253  -22.1399 H   0  0  0  0  0  0  0  0  0  0  0  0
  -20.3434    3.1475  -23.7571 H   0  0  0  0  0  0  0  0  0  0  0  0
  -22.5311    2.2090  -24.4024 H   0  0  0  0  0  0  0  0  0  0  0  0
  -22.7951   -0.2380  -24.7260 H   0  0  0  0  0  0  0  0  0  0  0  0
  -20.8508   -1.7423  -24.4071 H   0  0  0  0  0  0  0  0  0  0  0  0
  -18.6698   -0.8389  -23.7692 H   0  0  0  0  0  0  0  0  0  0  0  0
  -15.7579    9.1857  -20.1250 H   0  0  0  0  0  0  0  0  0  0  0  0
  -15.6889   11.1260  -18.6644 H   0  0  0  0  0  0  0  0  0  0  0  0
  -18.4983   12.1678  -16.4042 H   0  0  0  0  0  0  0  0  0  0  0  0
  -17.7853   13.0910  -17.7464 H   0  0  0  0  0  0  0  0  0  0  0  0
  -16.7456   12.2096  -16.5963 H   0  0  0  0  0  0  0  0  0  0  0  0
  -19.8342   10.5577  -17.6458 H   0  0  0  0  0  0  0  0  0  0  0  0
  1  2  1  0  0  0  0
  2  3  2  0  0  0  0
  2 34  1  0  0  0  0
  3  4  1  0  0  0  0
  3 30  1  0  0  0  0
  4 35  1  0  0  0  0
  4  5  1  0  0  0  0
  5  6  2  0  0  0  0
  5  7  1  0  0  0  0
  7  8  1  0  0  0  0
  7 36  1  0  0  0  0
  7 37  1  0  0  0  0
  8  9  1  0  0  0  0
  9 10  2  0  0  0  0
  9 28  1  0  0  0  0
 10 11  1  0  0  0  0
 10 20  1  0  0  0  0
 11 12  2  0  0  0  0
 11 13  2  0  0  0  0
 11 14  1  0  0  0  0
 14 15  2  0  0  0  0
 14 19  1  0  0  0  0
 15 38  1  0  0  0  0
 15 16  1  0  0  0  0
 16 39  1  0  0  0  0
 16 17  2  0  0  0  0
 17 40  1  0  0  0  0
 17 18  1  0  0  0  0
 18 19  2  0  0  0  0
 18 41  1  0  0  0  0
 19 42  1  0  0  0  0
 20 21  2  0  0  0  0
 21 28  1  0  0  0  0
 21 22  1  0  0  0  0
 22 23  2  0  0  0  0
 22 27  1  0  0  0  0
 23 24  1  0  0  0  0
 23 43  1  0  0  0  0
 24 44  1  0  0  0  0
 24 25  2  0  0  0  0
 25 26  1  0  0  0  0
 25 45  1  0  0  0  0
 26 27  2  0  0  0  0
 26 46  1  0  0  0  0
 27 47  1  0  0  0  0
 28 29  1  0  0  0  0
 30 31  2  0  0  0  0
 30 48  1  0  0  0  0
 31 49  1  0  0  0  0
 31 32  1  0  0  0  0
 32 33  1  0  0  0  0
 32 34  2  0  0  0  0
 33 50  1  0  0  0  0
 33 52  1  0  0  0  0
 33 51  1  0  0  0  0
 34 53  1  0  0  0  0
M  END
$$$$
