*****_entry_00001_conf_01
 OpenBabel06232217283D

 58 61  0  0  0  0  0  0  0  0999 V2000
  -11.0676    0.8988  -23.0713 S   0  0  0  0  0  0  0  0  0  0  0  0
  -12.3274    1.8131  -22.4379 C   0  0  0  0  0  0  0  0  0  0  0  0
  -13.7039    1.5110  -22.5060 N   0  0  0  0  0  0  0  0  0  0  0  0
  -14.1903    0.2846  -23.1544 C   0  0  0  0  0  0  0  0  0  0  0  0
  -14.9545   -0.6045  -22.1676 C   0  0  0  0  0  0  0  0  0  0  0  0
  -16.1194   -1.3328  -22.8403 C   0  0  0  0  0  0  0  0  0  0  0  0
  -17.1409   -0.3313  -23.3759 C   0  0  0  0  0  0  0  0  0  0  0  0
  -18.4642   -0.9836  -23.7319 C   0  0  0  0  0  0  0  0  0  0  0  0
  -18.4888   -2.1930  -23.9725 O   0  0  0  0  0  0  0  0  0  0  0  0
  -19.6042   -0.1899  -23.7942 N   0  0  0  0  0  0  0  0  0  0  0  0
  -19.6831    1.1953  -23.3293 C   0  0  0  0  0  0  0  0  0  0  0  0
  -20.5915    2.0316  -24.2288 C   0  0  0  0  0  0  0  0  0  0  0  0
  -21.9797    1.4054  -24.4184 C   0  0  0  0  0  0  0  0  0  0  0  0
  -22.8396    1.5376  -23.1597 C   0  0  0  0  0  0  0  0  0  0  0  0
  -21.8359   -0.0556  -24.8654 C   0  0  0  0  0  0  0  0  0  0  0  0
  -20.8914   -0.8613  -23.9764 C   0  0  0  0  0  0  0  0  0  0  0  0
  -14.7088    2.3080  -21.9137 C   0  0  0  0  0  0  0  0  0  0  0  0
  -15.9063    2.0327  -21.9201 O   0  0  0  0  0  0  0  0  0  0  0  0
  -14.2075    3.4834  -21.2766 C   0  0  0  0  0  0  0  0  0  0  0  0
  -14.9109    4.4615  -20.6307 N   0  0  0  0  0  0  0  0  0  0  0  0
  -15.9170    4.4734  -20.5233 H   0  0  0  0  0  0  0  0  0  0  0  0
  -14.0395    5.4200  -20.1515 C   0  0  0  0  0  0  0  0  0  0  0  0
  -12.7456    5.0250  -20.5093 C   0  0  0  0  0  0  0  0  0  0  0  0
  -12.8856    3.8077  -21.2139 C   0  0  0  0  0  0  0  0  0  0  0  0
  -11.9642    2.9744  -21.7889 N   0  0  0  0  0  0  0  0  0  0  0  0
  -11.6615    5.8404  -20.1316 C   0  0  0  0  0  0  0  0  0  0  0  0
  -11.8926    7.0213  -19.4121 C   0  0  0  0  0  0  0  0  0  0  0  0
  -10.7568    7.7231  -19.1058 O   0  0  0  0  0  0  0  0  0  0  0  0
  -10.5125    8.9118  -19.8472 C   0  0  0  0  0  0  0  0  0  0  0  0
  -13.1952    7.3875  -19.0726 C   0  0  0  0  0  0  0  0  0  0  0  0
  -14.2928    6.5940  -19.4354 C   0  0  0  0  0  0  0  0  0  0  0  0
  -13.3595   -0.2688  -23.6017 H   0  0  0  0  0  0  0  0  0  0  0  0
  -14.8516    0.5581  -23.9860 H   0  0  0  0  0  0  0  0  0  0  0  0
  -15.3351    0.0085  -21.3413 H   0  0  0  0  0  0  0  0  0  0  0  0
  -14.2737   -1.3385  -21.7203 H   0  0  0  0  0  0  0  0  0  0  0  0
  -16.6053   -2.0023  -22.1196 H   0  0  0  0  0  0  0  0  0  0  0  0
  -15.7415   -1.9725  -23.6451 H   0  0  0  0  0  0  0  0  0  0  0  0
  -16.7581    0.2239  -24.2385 H   0  0  0  0  0  0  0  0  0  0  0  0
  -17.3457    0.4258  -22.6077 H   0  0  0  0  0  0  0  0  0  0  0  0
  -18.7000    1.6661  -23.2932 H   0  0  0  0  0  0  0  0  0  0  0  0
  -20.0582    1.1737  -22.2998 H   0  0  0  0  0  0  0  0  0  0  0  0
  -20.1158    2.1233  -25.2143 H   0  0  0  0  0  0  0  0  0  0  0  0
  -20.6806    3.0473  -23.8266 H   0  0  0  0  0  0  0  0  0  0  0  0
  -22.4949    1.9549  -25.2169 H   0  0  0  0  0  0  0  0  0  0  0  0
  -22.4065    1.0182  -22.3002 H   0  0  0  0  0  0  0  0  0  0  0  0
  -23.8388    1.1237  -23.3319 H   0  0  0  0  0  0  0  0  0  0  0  0
  -22.9602    2.5919  -22.8879 H   0  0  0  0  0  0  0  0  0  0  0  0
  -21.4403   -0.0665  -25.8895 H   0  0  0  0  0  0  0  0  0  0  0  0
  -22.8166   -0.5440  -24.9023 H   0  0  0  0  0  0  0  0  0  0  0  0
  -20.7566   -1.8566  -24.4125 H   0  0  0  0  0  0  0  0  0  0  0  0
  -21.3249   -1.0082  -22.9800 H   0  0  0  0  0  0  0  0  0  0  0  0
  -10.9804    3.2114  -21.7333 H   0  0  0  0  0  0  0  0  0  0  0  0
  -10.6454    5.5607  -20.3935 H   0  0  0  0  0  0  0  0  0  0  0  0
   -9.5802    9.3502  -19.4784 H   0  0  0  0  0  0  0  0  0  0  0  0
  -11.3099    9.6458  -19.6906 H   0  0  0  0  0  0  0  0  0  0  0  0
  -10.3788    8.6926  -20.9117 H   0  0  0  0  0  0  0  0  0  0  0  0
  -13.4002    8.2977  -18.5173 H   0  0  0  0  0  0  0  0  0  0  0  0
  -15.3022    6.8886  -19.1653 H   0  0  0  0  0  0  0  0  0  0  0  0
  1  2  2  0  0  0  0
  2  3  1  0  0  0  0
  2 25  1  0  0  0  0
  3  4  1  0  0  0  0
  3 17  1  0  0  0  0
  4 32  1  0  0  0  0
  4  5  1  0  0  0  0
  4 33  1  0  0  0  0
  5 35  1  0  0  0  0
  5  6  1  0  0  0  0
  5 34  1  0  0  0  0
  6 36  1  0  0  0  0
  6  7  1  0  0  0  0
  6 37  1  0  0  0  0
  7  8  1  0  0  0  0
  7 38  1  0  0  0  0
  7 39  1  0  0  0  0
  8 10  1  0  0  0  0
  8  9  2  0  0  0  0
 10 11  1  0  0  0  0
 10 16  1  0  0  0  0
 11 40  1  0  0  0  0
 11 12  1  0  0  0  0
 11 41  1  0  0  0  0
 12 13  1  0  0  0  0
 12 42  1  0  0  0  0
 12 43  1  0  0  0  0
 13 14  1  0  0  0  0
 13 15  1  0  0  0  0
 13 44  1  0  0  0  0
 14 45  1  0  0  0  0
 14 46  1  0  0  0  0
 14 47  1  0  0  0  0
 15 16  1  0  0  0  0
 15 49  1  0  0  0  0
 15 48  1  0  0  0  0
 16 50  1  0  0  0  0
 16 51  1  0  0  0  0
 17 18  2  0  0  0  0
 17 19  1  0  0  0  0
 19 20  1  0  0  0  0
 19 24  2  0  0  0  0
 20 21  1  0  0  0  0
 20 22  1  0  0  0  0
 22 23  2  0  0  0  0
 22 31  1  0  0  0  0
 23 24  1  0  0  0  0
 23 26  1  0  0  0  0
 24 25  1  0  0  0  0
 25 52  1  0  0  0  0
 26 27  2  0  0  0  0
 26 53  1  0  0  0  0
 27 30  1  0  0  0  0
 27 28  1  0  0  0  0
 28 29  1  0  0  0  0
 29 54  1  0  0  0  0
 29 55  1  0  0  0  0
 29 56  1  0  0  0  0
 30 31  2  0  0  0  0
 30 57  1  0  0  0  0
 31 58  1  0  0  0  0
M  END
$$$$
