*****_entry_00001_conf_01
 OpenBabel06232217283D

 57 60  0  0  0  0  0  0  0  0999 V2000
  -15.8372    9.2716  -20.2804 S   0  0  0  0  0  0  0  0  0  0  0  0
  -14.8785    9.7756  -21.2445 O   0  0  0  0  0  0  0  0  0  0  0  0
  -16.9355   10.0967  -19.8277 O   0  0  0  0  0  0  0  0  0  0  0  0
  -14.9291    8.6574  -19.0132 N   0  0  0  0  0  0  0  0  0  0  0  0
  -13.5953    8.4372  -19.3506 C   0  0  0  0  0  0  0  0  0  0  0  0
  -12.8730    9.4724  -19.7834 N   0  0  0  0  0  0  0  0  0  0  0  0
  -11.5814    9.2009  -20.0642 C   0  0  0  0  0  0  0  0  0  0  0  0
  -10.7266   10.3299  -20.5565 C   0  0  0  0  0  0  0  0  0  0  0  0
  -11.0360    7.9397  -19.8995 C   0  0  0  0  0  0  0  0  0  0  0  0
  -11.8862    6.9647  -19.4268 C   0  0  0  0  0  0  0  0  0  0  0  0
  -13.1778    7.1881  -19.1295 N   0  0  0  0  0  0  0  0  0  0  0  0
  -16.5180    7.7830  -20.9834 C   0  0  0  0  0  0  0  0  0  0  0  0
  -17.5618    7.8596  -21.9051 C   0  0  0  0  0  0  0  0  0  0  0  0
  -18.0254    6.6933  -22.5285 C   0  0  0  0  0  0  0  0  0  0  0  0
  -17.4521    5.4508  -22.2393 C   0  0  0  0  0  0  0  0  0  0  0  0
  -17.8373    4.2386  -22.8522 N   0  0  0  0  0  0  0  0  0  0  0  0
  -17.4038    2.9595  -22.5405 C   0  0  0  0  0  0  0  0  0  0  0  0
  -16.5852    2.6634  -21.6737 O   0  0  0  0  0  0  0  0  0  0  0  0
  -18.0786    1.8689  -23.3629 C   0  0  0  0  0  0  0  0  0  0  0  0
  -17.3568    0.5616  -23.3531 C   0  0  0  0  0  0  0  0  0  0  0  0
  -15.9524    0.3191  -23.2235 C   0  0  0  0  0  0  0  0  0  0  0  0
  -15.7923   -1.0594  -23.2720 C   0  0  0  0  0  0  0  0  0  0  0  0
  -17.0007   -1.6696  -23.4022 O   0  0  0  0  0  0  0  0  0  0  0  0
  -17.9376   -0.6898  -23.4409 C   0  0  0  0  0  0  0  0  0  0  0  0
  -14.5639   -1.7085  -23.1975 C   0  0  0  0  0  0  0  0  0  0  0  0
  -13.4307   -0.8942  -23.0813 C   0  0  0  0  0  0  0  0  0  0  0  0
  -13.5287    0.5065  -23.0301 C   0  0  0  0  0  0  0  0  0  0  0  0
  -12.2673    1.3495  -22.9254 C   0  0  0  0  0  0  0  0  0  0  0  0
  -12.2640    2.2087  -21.6565 C   0  0  0  0  0  0  0  0  0  0  0  0
  -11.0112    0.4789  -22.9979 C   0  0  0  0  0  0  0  0  0  0  0  0
  -14.7996    1.1152  -23.0806 C   0  0  0  0  0  0  0  0  0  0  0  0
  -16.4116    5.3892  -21.3009 C   0  0  0  0  0  0  0  0  0  0  0  0
  -15.9370    6.5495  -20.6797 C   0  0  0  0  0  0  0  0  0  0  0  0
  -15.3294    7.7573  -18.7611 H   0  0  0  0  0  0  0  0  0  0  0  0
  -11.3165   11.2444  -20.6729 H   0  0  0  0  0  0  0  0  0  0  0  0
  -10.2895   10.0795  -21.5282 H   0  0  0  0  0  0  0  0  0  0  0  0
   -9.9216   10.5306  -19.8423 H   0  0  0  0  0  0  0  0  0  0  0  0
   -9.9996    7.7242  -20.1254 H   0  0  0  0  0  0  0  0  0  0  0  0
  -11.5397    5.9473  -19.2681 H   0  0  0  0  0  0  0  0  0  0  0  0
  -18.0112    8.8177  -22.1592 H   0  0  0  0  0  0  0  0  0  0  0  0
  -18.8309    6.7971  -23.2492 H   0  0  0  0  0  0  0  0  0  0  0  0
  -18.4813    4.3194  -23.6305 H   0  0  0  0  0  0  0  0  0  0  0  0
  -18.1855    2.2423  -24.3888 H   0  0  0  0  0  0  0  0  0  0  0  0
  -19.0908    1.7185  -22.9688 H   0  0  0  0  0  0  0  0  0  0  0  0
  -18.9591   -1.0346  -23.5299 H   0  0  0  0  0  0  0  0  0  0  0  0
  -14.4935   -2.7887  -23.2361 H   0  0  0  0  0  0  0  0  0  0  0  0
  -12.4541   -1.3734  -23.0324 H   0  0  0  0  0  0  0  0  0  0  0  0
  -12.2374    2.0406  -23.7781 H   0  0  0  0  0  0  0  0  0  0  0  0
  -12.2124    1.6007  -20.7466 H   0  0  0  0  0  0  0  0  0  0  0  0
  -13.1699    2.8222  -21.5965 H   0  0  0  0  0  0  0  0  0  0  0  0
  -11.4007    2.8828  -21.6511 H   0  0  0  0  0  0  0  0  0  0  0  0
  -10.9561   -0.2305  -22.1649 H   0  0  0  0  0  0  0  0  0  0  0  0
  -10.1091    1.0995  -22.9677 H   0  0  0  0  0  0  0  0  0  0  0  0
  -10.9898   -0.0987  -23.9287 H   0  0  0  0  0  0  0  0  0  0  0  0
  -14.8893    2.1968  -23.0223 H   0  0  0  0  0  0  0  0  0  0  0  0
  -15.9417    4.4405  -21.0524 H   0  0  0  0  0  0  0  0  0  0  0  0
  -15.1094    6.4839  -19.9771 H   0  0  0  0  0  0  0  0  0  0  0  0
  1  3  2  0  0  0  0
  1  2  2  0  0  0  0
  1  4  1  0  0  0  0
  1 12  1  0  0  0  0
  4  5  1  0  0  0  0
  4 34  1  0  0  0  0
  5  6  2  0  0  0  0
  5 11  1  0  0  0  0
  6  7  1  0  0  0  0
  7  8  1  0  0  0  0
  7  9  2  0  0  0  0
  8 35  1  0  0  0  0
  8 36  1  0  0  0  0
  8 37  1  0  0  0  0
  9 10  1  0  0  0  0
  9 38  1  0  0  0  0
 10 11  2  0  0  0  0
 10 39  1  0  0  0  0
 12 13  2  0  0  0  0
 12 33  1  0  0  0  0
 13 40  1  0  0  0  0
 13 14  1  0  0  0  0
 14 15  2  0  0  0  0
 14 41  1  0  0  0  0
 15 32  1  0  0  0  0
 15 16  1  0  0  0  0
 16 17  1  0  0  0  0
 16 42  1  0  0  0  0
 17 18  2  0  0  0  0
 17 19  1  0  0  0  0
 19 20  1  0  0  0  0
 19 43  1  0  0  0  0
 19 44  1  0  0  0  0
 20 21  1  0  0  0  0
 20 24  2  0  0  0  0
 21 31  2  0  0  0  0
 21 22  1  0  0  0  0
 22 23  1  0  0  0  0
 22 25  2  0  0  0  0
 23 24  1  0  0  0  0
 24 45  1  0  0  0  0
 25 46  1  0  0  0  0
 25 26  1  0  0  0  0
 26 27  2  0  0  0  0
 26 47  1  0  0  0  0
 27 31  1  0  0  0  0
 27 28  1  0  0  0  0
 28 29  1  0  0  0  0
 28 30  1  0  0  0  0
 28 48  1  0  0  0  0
 29 49  1  0  0  0  0
 29 50  1  0  0  0  0
 29 51  1  0  0  0  0
 30 52  1  0  0  0  0
 30 54  1  0  0  0  0
 30 53  1  0  0  0  0
 31 55  1  0  0  0  0
 32 33  2  0  0  0  0
 32 56  1  0  0  0  0
 33 57  1  0  0  0  0
M  END
$$$$
