*****_entry_00001_conf_01
 OpenBabel06232217283D

 47 50  0  0  0  0  0  0  0  0999 V2000
  -18.7551    4.4646  -22.1306 O   0  0  0  0  0  0  0  0  0  0  0  0
  -17.9337    3.5878  -22.3738 C   0  0  0  0  0  0  0  0  0  0  0  0
  -18.2361    2.3531  -22.9058 N   0  0  0  0  0  0  0  0  0  0  0  0
  -19.4948    1.9583  -23.2518 C   0  0  0  0  0  0  0  0  0  0  0  0
  -19.5530    0.3649  -23.8569 S   0  0  0  0  0  0  0  0  0  0  0  0
  -21.2549    0.5196  -24.0710 C   0  0  0  0  0  0  0  0  0  0  0  0
  -21.6455    1.7973  -23.6636 C   0  0  0  0  0  0  0  0  0  0  0  0
  -20.6249    2.6069  -23.1901 N   0  0  0  0  0  0  0  0  0  0  0  0
  -23.0050    2.1500  -23.7675 C   0  0  0  0  0  0  0  0  0  0  0  0
  -23.9297    1.2238  -24.2661 C   0  0  0  0  0  0  0  0  0  0  0  0
  -23.5263   -0.0565  -24.6557 C   0  0  0  0  0  0  0  0  0  0  0  0
  -24.5363   -1.0226  -25.2063 C   0  0  0  0  0  0  0  0  0  0  0  0
  -22.1741   -0.4205  -24.5682 C   0  0  0  0  0  0  0  0  0  0  0  0
  -16.5107    3.7692  -22.0881 C   0  0  0  0  0  0  0  0  0  0  0  0
  -15.8618    4.8878  -21.5829 C   0  0  0  0  0  0  0  0  0  0  0  0
  -16.4786    6.1862  -21.1944 C   0  0  0  0  0  0  0  0  0  0  0  0
  -14.4865    4.7495  -21.4255 N   0  0  0  0  0  0  0  0  0  0  0  0
  -14.0965    3.5567  -21.8223 C   0  0  0  0  0  0  0  0  0  0  0  0
  -12.6808    3.0622  -21.7858 C   0  0  0  0  0  0  0  0  0  0  0  0
  -12.6728    1.6710  -21.4520 O   0  0  0  0  0  0  0  0  0  0  0  0
  -12.9337    0.7550  -22.4327 C   0  0  0  0  0  0  0  0  0  0  0  0
  -13.9973   -0.1488  -22.4643 C   0  0  0  0  0  0  0  0  0  0  0  0
  -14.1635   -1.0174  -23.5559 C   0  0  0  0  0  0  0  0  0  0  0  0
  -15.3042   -1.9925  -23.5837 C   0  0  0  0  0  0  0  0  0  0  0  0
  -13.2239   -1.0059  -24.5930 C   0  0  0  0  0  0  0  0  0  0  0  0
  -12.1488   -0.1211  -24.5552 C   0  0  0  0  0  0  0  0  0  0  0  0
  -12.0097    0.7572  -23.4810 C   0  0  0  0  0  0  0  0  0  0  0  0
  -15.3556    2.5244  -22.3647 S   0  0  0  0  0  0  0  0  0  0  0  0
  -17.4968    1.6820  -23.0465 H   0  0  0  0  0  0  0  0  0  0  0  0
  -23.3235    3.1423  -23.4627 H   0  0  0  0  0  0  0  0  0  0  0  0
  -24.9750    1.5167  -24.3462 H   0  0  0  0  0  0  0  0  0  0  0  0
  -25.4205   -1.0594  -24.5618 H   0  0  0  0  0  0  0  0  0  0  0  0
  -24.1285   -2.0376  -25.2621 H   0  0  0  0  0  0  0  0  0  0  0  0
  -24.8366   -0.7170  -26.2134 H   0  0  0  0  0  0  0  0  0  0  0  0
  -21.8376   -1.4060  -24.8777 H   0  0  0  0  0  0  0  0  0  0  0  0
  -15.7821    6.7803  -20.5935 H   0  0  0  0  0  0  0  0  0  0  0  0
  -17.3804    6.0310  -20.5944 H   0  0  0  0  0  0  0  0  0  0  0  0
  -16.7395    6.7653  -22.0852 H   0  0  0  0  0  0  0  0  0  0  0  0
  -12.1411    3.5845  -20.9866 H   0  0  0  0  0  0  0  0  0  0  0  0
  -12.1329    3.2836  -22.7077 H   0  0  0  0  0  0  0  0  0  0  0  0
  -14.7134   -0.2112  -21.6503 H   0  0  0  0  0  0  0  0  0  0  0  0
  -16.1536   -1.6201  -23.0014 H   0  0  0  0  0  0  0  0  0  0  0  0
  -14.9864   -2.9541  -23.1699 H   0  0  0  0  0  0  0  0  0  0  0  0
  -15.6579   -2.1446  -24.6090 H   0  0  0  0  0  0  0  0  0  0  0  0
  -13.3239   -1.6888  -25.4335 H   0  0  0  0  0  0  0  0  0  0  0  0
  -11.4191   -0.1150  -25.3602 H   0  0  0  0  0  0  0  0  0  0  0  0
  -11.1702    1.4476  -23.4590 H   0  0  0  0  0  0  0  0  0  0  0  0
  1  2  2  0  0  0  0
  2  3  1  0  0  0  0
  2 14  1  0  0  0  0
  3  4  1  0  0  0  0
  3 29  1  0  0  0  0
  4  5  1  0  0  0  0
  4  8  2  0  0  0  0
  5  6  1  0  0  0  0
  6  7  2  0  0  0  0
  6 13  1  0  0  0  0
  7  8  1  0  0  0  0
  7  9  1  0  0  0  0
  9 10  2  0  0  0  0
  9 30  1  0  0  0  0
 10 11  1  0  0  0  0
 10 31  1  0  0  0  0
 11 12  1  0  0  0  0
 11 13  2  0  0  0  0
 12 32  1  0  0  0  0
 12 33  1  0  0  0  0
 12 34  1  0  0  0  0
 13 35  1  0  0  0  0
 14 15  2  0  0  0  0
 14 28  1  0  0  0  0
 15 17  1  0  0  0  0
 15 16  1  0  0  0  0
 16 38  1  0  0  0  0
 16 36  1  0  0  0  0
 16 37  1  0  0  0  0
 17 18  2  0  0  0  0
 18 19  1  0  0  0  0
 18 28  1  0  0  0  0
 19 20  1  0  0  0  0
 19 39  1  0  0  0  0
 19 40  1  0  0  0  0
 20 21  1  0  0  0  0
 21 22  2  0  0  0  0
 21 27  1  0  0  0  0
 22 41  1  0  0  0  0
 22 23  1  0  0  0  0
 23 25  2  0  0  0  0
 23 24  1  0  0  0  0
 24 44  1  0  0  0  0
 24 43  1  0  0  0  0
 24 42  1  0  0  0  0
 25 45  1  0  0  0  0
 25 26  1  0  0  0  0
 26 27  2  0  0  0  0
 26 46  1  0  0  0  0
 27 47  1  0  0  0  0
M  END
$$$$
