*****_entry_00001_conf_01
 OpenBabel06232217283D

 55 58  0  0  1  0  0  0  0  0999 V2000
  -23.6553    0.3113  -26.3823 Cl  0  0  0  0  0  0  0  0  0  0  0  0
  -22.8253    1.3508  -25.2907 C   0  0  0  0  0  0  0  0  0  0  0  0
  -22.9121    2.7319  -25.4492 C   0  0  0  0  0  0  0  0  0  0  0  0
  -22.2461    3.5750  -24.5571 C   0  0  0  0  0  0  0  0  0  0  0  0
  -21.4791    3.0416  -23.5099 C   0  0  0  0  0  0  0  0  0  0  0  0
  -20.7795    3.9632  -22.5326 C   0  0  0  0  0  0  0  0  0  0  0  0
  -19.3165    3.9677  -22.6967 N   0  3  1  0  0  0  0  0  0  0  0  0
  -18.6878    5.0210  -21.8654 C   0  0  0  0  0  0  0  0  0  0  0  0
  -17.2087    4.8628  -21.6904 C   0  0  0  0  0  0  0  0  0  0  0  0
  -16.4718    5.9410  -21.0026 C   0  0  0  0  0  0  0  0  0  0  0  0
  -17.0128    6.9769  -20.6326 O   0  0  0  0  0  0  0  0  0  0  0  0
  -15.1546    5.6850  -20.7724 N   0  0  0  0  0  0  0  0  0  0  0  0
  -14.5672    4.5379  -21.1966 C   0  0  0  0  0  0  0  0  0  0  0  0
  -12.8923    4.4353  -20.7470 S   0  0  0  0  0  0  0  0  0  0  0  0
  -12.2352    3.6006  -22.2214 C   0  0  0  0  0  0  0  0  0  0  0  0
  -12.5460    2.1087  -22.1779 C   0  0  0  0  0  0  0  0  0  0  0  0
  -11.8279    1.3221  -21.5678 O   0  0  0  0  0  0  0  0  0  0  0  0
  -13.6940    1.7658  -22.8788 N   0  0  0  0  0  0  0  0  0  0  0  0
  -14.2271    0.4692  -23.0472 C   0  0  0  0  0  0  0  0  0  0  0  0
  -15.5688    0.2107  -23.3433 C   0  0  0  0  0  0  0  0  0  0  0  0
  -16.0373   -1.1056  -23.5018 C   0  0  0  0  0  0  0  0  0  0  0  0
  -17.4882   -1.3812  -23.8116 C   0  0  0  0  0  0  0  0  0  0  0  0
  -17.6819   -2.2199  -24.8667 F   0  0  0  0  0  0  0  0  0  0  0  0
  -18.1453   -1.9460  -22.7605 F   0  0  0  0  0  0  0  0  0  0  0  0
  -18.1774   -0.2442  -24.1115 F   0  0  0  0  0  0  0  0  0  0  0  0
  -15.1351   -2.1696  -23.3661 C   0  0  0  0  0  0  0  0  0  0  0  0
  -13.7978   -1.9226  -23.0640 C   0  0  0  0  0  0  0  0  0  0  0  0
  -13.3491   -0.6105  -22.8978 C   0  0  0  0  0  0  0  0  0  0  0  0
  -15.1636    3.6123  -21.8645 N   0  0  0  0  0  0  0  0  0  0  0  0
  -16.5140    3.7766  -22.0651 C   0  0  0  0  0  0  0  0  0  0  0  0
  -17.2475    2.5996  -22.6546 C   0  0  0  0  0  0  0  0  0  0  0  0
  -18.7561    2.6482  -22.3613 C   0  0  0  0  0  0  0  0  0  0  0  0
  -21.4005    1.6480  -23.3652 C   0  0  0  0  0  0  0  0  0  0  0  0
  -22.0749    0.8050  -24.2514 C   0  0  0  0  0  0  0  0  0  0  0  0
  -23.5006    3.1586  -26.2564 H   0  0  0  0  0  0  0  0  0  0  0  0
  -22.3322    4.6536  -24.6739 H   0  0  0  0  0  0  0  0  0  0  0  0
  -21.0388    3.6112  -21.5245 H   0  0  0  0  0  0  0  0  0  0  0  0
  -21.1942    4.9779  -22.6047 H   0  0  0  0  0  0  0  0  0  0  0  0
  -19.1409    5.0378  -20.8648 H   0  0  0  0  0  0  0  0  0  0  0  0
  -18.8763    5.9921  -22.3377 H   0  0  0  0  0  0  0  0  0  0  0  0
  -14.6141    6.3788  -20.2826 H   0  0  0  0  0  0  0  0  0  0  0  0
  -11.1515    3.7542  -22.2507 H   0  0  0  0  0  0  0  0  0  0  0  0
  -12.6375    4.0320  -23.1433 H   0  0  0  0  0  0  0  0  0  0  0  0
  -14.2374    2.5237  -23.2737 H   0  0  0  0  0  0  0  0  0  0  0  0
  -16.2870    1.0204  -23.4443 H   0  0  0  0  0  0  0  0  0  0  0  0
  -15.4773   -3.1959  -23.4933 H   0  0  0  0  0  0  0  0  0  0  0  0
  -13.1028   -2.7526  -22.9595 H   0  0  0  0  0  0  0  0  0  0  0  0
  -12.2994   -0.4486  -22.6659 H   0  0  0  0  0  0  0  0  0  0  0  0
  -16.8454    1.6652  -22.2439 H   0  0  0  0  0  0  0  0  0  0  0  0
  -17.0757    2.5814  -23.7378 H   0  0  0  0  0  0  0  0  0  0  0  0
  -18.9414    2.4050  -21.3057 H   0  0  0  0  0  0  0  0  0  0  0  0
  -19.2392    1.8674  -22.9616 H   0  0  0  0  0  0  0  0  0  0  0  0
  -20.8263    1.2109  -22.5512 H   0  0  0  0  0  0  0  0  0  0  0  0
  -22.0163   -0.2720  -24.1208 H   0  0  0  0  0  0  0  0  0  0  0  0
  -19.0924    4.1777  -23.7321 H   0  0  0  0  0  0  0  0  0  0  0  0
  1  2  1  0  0  0  0
  2  3  2  0  0  0  0
  2 34  1  0  0  0  0
  3  4  1  0  0  0  0
  3 35  1  0  0  0  0
  4 36  1  0  0  0  0
  4  5  2  0  0  0  0
  5  6  1  0  0  0  0
  5 33  1  0  0  0  0
  6  7  1  0  0  0  0
  6 37  1  0  0  0  0
  6 38  1  0  0  0  0
  7 32  1  0  0  0  0
  7  8  1  0  0  0  0
  7 55  1  6  0  0  0
  8 39  1  0  0  0  0
  8 40  1  0  0  0  0
  8  9  1  0  0  0  0
  9 10  1  0  0  0  0
  9 30  2  0  0  0  0
 10 11  2  0  0  0  0
 10 12  1  0  0  0  0
 12 13  1  0  0  0  0
 12 41  1  0  0  0  0
 13 14  1  0  0  0  0
 13 29  2  0  0  0  0
 14 15  1  0  0  0  0
 15 16  1  0  0  0  0
 15 42  1  0  0  0  0
 15 43  1  0  0  0  0
 16 18  1  0  0  0  0
 16 17  2  0  0  0  0
 18 44  1  0  0  0  0
 18 19  1  0  0  0  0
 19 28  2  0  0  0  0
 19 20  1  0  0  0  0
 20 21  2  0  0  0  0
 20 45  1  0  0  0  0
 21 26  1  0  0  0  0
 21 22  1  0  0  0  0
 22 23  1  0  0  0  0
 22 24  1  0  0  0  0
 22 25  1  0  0  0  0
 26 27  2  0  0  0  0
 26 46  1  0  0  0  0
 27 28  1  0  0  0  0
 27 47  1  0  0  0  0
 28 48  1  0  0  0  0
 29 30  1  0  0  0  0
 30 31  1  0  0  0  0
 31 32  1  0  0  0  0
 31 49  1  0  0  0  0
 31 50  1  0  0  0  0
 32 51  1  0  0  0  0
 32 52  1  0  0  0  0
 33 53  1  0  0  0  0
 33 34  2  0  0  0  0
 34 54  1  0  0  0  0
M  CHG  1   7   1
M  END
$$$$
