*****_entry_00001_conf_01
 OpenBabel06232217283D

 53 56  0  0  1  0  0  0  0  0999 V2000
  -16.9326    1.4956  -23.3352 S   0  0  0  0  0  0  0  0  0  0  0  0
  -16.8935   -0.3184  -23.3840 C   0  0  0  0  0  0  0  0  0  0  0  0
  -15.4812   -0.8400  -23.2809 C   0  0  0  0  0  0  0  0  0  0  0  0
  -14.3992    0.0495  -23.2132 C   0  0  0  0  0  0  0  0  0  0  0  0
  -13.1008   -0.4402  -23.1107 C   0  0  0  0  0  0  0  0  0  0  0  0
  -12.0758    0.4204  -23.0535 F   0  0  0  0  0  0  0  0  0  0  0  0
  -12.8504   -1.8060  -23.0665 C   0  0  0  0  0  0  0  0  0  0  0  0
  -13.9173   -2.7005  -23.1235 C   0  0  0  0  0  0  0  0  0  0  0  0
  -15.2261   -2.2206  -23.2292 C   0  0  0  0  0  0  0  0  0  0  0  0
  -18.6444    1.7659  -23.2768 C   0  0  0  0  0  0  0  0  0  0  0  0
  -19.1875    2.7408  -22.6303 N   0  0  0  0  0  0  0  0  0  0  0  0
  -20.5503    2.8032  -22.6702 C   0  0  0  0  0  0  0  0  0  0  0  0
  -21.0994    3.8589  -22.0129 N   0  0  0  0  0  0  0  0  0  0  0  0
  -22.4330    4.1015  -21.8531 C   0  0  0  0  0  0  0  0  0  0  0  0
  -22.8281    5.1125  -21.2761 O   0  0  0  0  0  0  0  0  0  0  0  0
  -23.3923    3.0155  -22.2927 C   0  0  0  0  0  0  0  0  0  0  0  0
  -22.8303    2.0702  -23.3558 C   0  0  1  0  0  0  0  0  0  0  0  0
  -23.2587    2.5556  -24.7482 C   0  0  0  0  0  0  0  0  0  0  0  0
  -23.7685    1.7904  -25.5613 O   0  0  0  0  0  0  0  0  0  0  0  0
  -22.9370    3.8882  -24.9621 N   0  0  0  0  0  0  0  0  0  0  0  0
  -23.1235    4.6463  -26.1375 C   0  0  0  0  0  0  0  0  0  0  0  0
  -22.7556    5.9847  -26.2781 C   0  0  0  0  0  0  0  0  0  0  0  0
  -22.9933    6.6859  -27.4776 C   0  0  0  0  0  0  0  0  0  0  0  0
  -22.5737    8.1282  -27.5737 C   0  0  0  0  0  0  0  0  0  0  0  0
  -23.5989    6.0229  -28.5618 C   0  0  0  0  0  0  0  0  0  0  0  0
  -23.9208    6.7283  -29.8506 C   0  0  0  0  0  0  0  0  0  0  0  0
  -23.9704    4.6805  -28.4136 C   0  0  0  0  0  0  0  0  0  0  0  0
  -23.7282    3.9991  -27.2188 C   0  0  0  0  0  0  0  0  0  0  0  0
  -21.3446    1.9356  -23.3052 C   0  0  0  0  0  0  0  0  0  0  0  0
  -20.6953    0.8192  -24.0113 C   0  0  0  0  0  0  0  0  0  0  0  0
  -21.3448   -0.0605  -24.5643 O   0  0  0  0  0  0  0  0  0  0  0  0
  -19.3359    0.8228  -23.9680 N   0  0  0  0  0  0  0  0  0  0  0  0
  -17.3434   -0.6780  -24.3165 H   0  0  0  0  0  0  0  0  0  0  0  0
  -17.4930   -0.7216  -22.5596 H   0  0  0  0  0  0  0  0  0  0  0  0
  -14.5527    1.1246  -23.2391 H   0  0  0  0  0  0  0  0  0  0  0  0
  -11.8289   -2.1628  -22.9851 H   0  0  0  0  0  0  0  0  0  0  0  0
  -13.7319   -3.7709  -23.0835 H   0  0  0  0  0  0  0  0  0  0  0  0
  -16.0494   -2.9319  -23.2666 H   0  0  0  0  0  0  0  0  0  0  0  0
  -20.4637    4.5471  -21.6302 H   0  0  0  0  0  0  0  0  0  0  0  0
  -24.3157    3.4981  -22.6334 H   0  0  0  0  0  0  0  0  0  0  0  0
  -23.6356    2.4390  -21.3910 H   0  0  0  0  0  0  0  0  0  0  0  0
  -23.2781    1.0808  -23.1911 H   0  0  0  0  0  0  0  0  0  0  0  0
  -22.5221    4.3929  -24.1891 H   0  0  0  0  0  0  0  0  0  0  0  0
  -22.2765    6.5157  -25.4610 H   0  0  0  0  0  0  0  0  0  0  0  0
  -22.2175    8.5104  -26.6112 H   0  0  0  0  0  0  0  0  0  0  0  0
  -23.4188    8.7531  -27.8794 H   0  0  0  0  0  0  0  0  0  0  0  0
  -21.7584    8.2358  -28.2963 H   0  0  0  0  0  0  0  0  0  0  0  0
  -23.1198    7.4139  -30.1423 H   0  0  0  0  0  0  0  0  0  0  0  0
  -24.8551    7.2888  -29.7444 H   0  0  0  0  0  0  0  0  0  0  0  0
  -24.0380    6.0134  -30.6724 H   0  0  0  0  0  0  0  0  0  0  0  0
  -24.4567    4.1533  -29.2318 H   0  0  0  0  0  0  0  0  0  0  0  0
  -24.0322    2.9582  -27.1494 H   0  0  0  0  0  0  0  0  0  0  0  0
  -18.8387    0.0788  -24.4329 H   0  0  0  0  0  0  0  0  0  0  0  0
  1  2  1  0  0  0  0
  1 10  1  0  0  0  0
  2  3  1  0  0  0  0
  2 34  1  0  0  0  0
  2 33  1  0  0  0  0
  3  9  2  0  0  0  0
  3  4  1  0  0  0  0
  4 35  1  0  0  0  0
  4  5  2  0  0  0  0
  5  6  1  0  0  0  0
  5  7  1  0  0  0  0
  7  8  2  0  0  0  0
  7 36  1  0  0  0  0
  8  9  1  0  0  0  0
  8 37  1  0  0  0  0
  9 38  1  0  0  0  0
 10 11  2  0  0  0  0
 10 32  1  0  0  0  0
 11 12  1  0  0  0  0
 12 29  2  0  0  0  0
 12 13  1  0  0  0  0
 13 14  1  0  0  0  0
 13 39  1  0  0  0  0
 14 15  2  0  0  0  0
 14 16  1  0  0  0  0
 16 17  1  0  0  0  0
 16 40  1  0  0  0  0
 16 41  1  0  0  0  0
 17 18  1  0  0  0  0
 17 29  1  0  0  0  0
 17 42  1  1  0  0  0
 18 19  2  0  0  0  0
 18 20  1  0  0  0  0
 20 21  1  0  0  0  0
 20 43  1  0  0  0  0
 21 22  2  0  0  0  0
 21 28  1  0  0  0  0
 22 44  1  0  0  0  0
 22 23  1  0  0  0  0
 23 24  1  0  0  0  0
 23 25  2  0  0  0  0
 24 45  1  0  0  0  0
 24 46  1  0  0  0  0
 24 47  1  0  0  0  0
 25 27  1  0  0  0  0
 25 26  1  0  0  0  0
 26 48  1  0  0  0  0
 26 49  1  0  0  0  0
 26 50  1  0  0  0  0
 27 28  2  0  0  0  0
 27 51  1  0  0  0  0
 28 52  1  0  0  0  0
 29 30  1  0  0  0  0
 30 31  2  0  0  0  0
 30 32  1  0  0  0  0
 32 53  1  0  0  0  0
M  END
$$$$
