*****_entry_00001_conf_01
 OpenBabel06232217283D

 42 44  0  0  0  0  0  0  0  0999 V2000
  -14.9231   -1.3399  -23.6235 S   0  0  0  0  0  0  0  0  0  0  0  0
  -16.5229   -0.5766  -24.0224 C   0  0  0  0  0  0  0  0  0  0  0  0
  -17.6274   -1.6126  -23.9218 C   0  0  0  0  0  0  0  0  0  0  0  0
  -17.3666   -2.8199  -23.9666 O   0  0  0  0  0  0  0  0  0  0  0  0
  -18.9348   -1.2531  -23.7737 N   0  0  0  0  0  0  0  0  0  0  0  0
  -19.4250    0.0156  -23.6821 C   0  0  0  0  0  0  0  0  0  0  0  0
  -21.1235    0.1255  -23.6054 S   0  0  0  0  0  0  0  0  0  0  0  0
  -20.9250    1.8366  -23.5370 C   0  0  0  0  0  0  0  0  0  0  0  0
  -22.1090    2.7473  -23.4530 C   0  0  0  0  0  0  0  0  0  0  0  0
  -22.2261    3.4655  -22.0962 C   0  0  0  0  0  0  0  0  0  0  0  0
  -20.9394    4.2482  -21.8183 C   0  0  0  0  0  0  0  0  0  0  0  0
  -23.4246    4.4167  -22.0351 C   0  0  0  0  0  0  0  0  0  0  0  0
  -19.6671    2.2295  -23.5833 N   0  0  0  0  0  0  0  0  0  0  0  0
  -18.7953    1.1641  -23.6506 N   0  0  0  0  0  0  0  0  0  0  0  0
  -14.1700    0.0599  -22.9373 C   0  0  0  0  0  0  0  0  0  0  0  0
  -14.8762    0.9842  -22.3839 N   0  0  0  0  0  0  0  0  0  0  0  0
  -14.1828    2.0759  -21.8362 C   0  0  0  0  0  0  0  0  0  0  0  0
  -12.7880    2.1748  -21.8730 C   0  0  0  0  0  0  0  0  0  0  0  0
  -12.0444    1.0846  -22.5332 C   0  0  0  0  0  0  0  0  0  0  0  0
  -10.8218    1.0992  -22.6171 O   0  0  0  0  0  0  0  0  0  0  0  0
  -12.8128    0.0705  -23.0407 N   0  0  0  0  0  0  0  0  0  0  0  0
  -12.1227    3.2701  -21.3132 C   0  0  0  0  0  0  0  0  0  0  0  0
  -12.8637    4.2848  -20.7081 C   0  0  0  0  0  0  0  0  0  0  0  0
  -14.2563    4.2005  -20.6666 C   0  0  0  0  0  0  0  0  0  0  0  0
  -14.9109    3.1002  -21.2279 C   0  0  0  0  0  0  0  0  0  0  0  0
  -16.5383   -0.1029  -25.0080 H   0  0  0  0  0  0  0  0  0  0  0  0
  -16.7223    0.2138  -23.2906 H   0  0  0  0  0  0  0  0  0  0  0  0
  -19.5975   -2.0153  -23.7583 H   0  0  0  0  0  0  0  0  0  0  0  0
  -23.0350    2.1984  -23.6668 H   0  0  0  0  0  0  0  0  0  0  0  0
  -22.0087    3.4972  -24.2488 H   0  0  0  0  0  0  0  0  0  0  0  0
  -22.3464    2.7168  -21.3024 H   0  0  0  0  0  0  0  0  0  0  0  0
  -20.7730    5.0194  -22.5787 H   0  0  0  0  0  0  0  0  0  0  0  0
  -20.0701    3.5824  -21.8152 H   0  0  0  0  0  0  0  0  0  0  0  0
  -20.9856    4.7418  -20.8418 H   0  0  0  0  0  0  0  0  0  0  0  0
  -23.3946    5.1476  -22.8502 H   0  0  0  0  0  0  0  0  0  0  0  0
  -23.4357    4.9669  -21.0880 H   0  0  0  0  0  0  0  0  0  0  0  0
  -24.3704    3.8695  -22.1003 H   0  0  0  0  0  0  0  0  0  0  0  0
  -12.3386   -0.6707  -23.5461 H   0  0  0  0  0  0  0  0  0  0  0  0
  -11.0376    3.3316  -21.3494 H   0  0  0  0  0  0  0  0  0  0  0  0
  -12.3570    5.1411  -20.2693 H   0  0  0  0  0  0  0  0  0  0  0  0
  -14.8360    4.9909  -20.1956 H   0  0  0  0  0  0  0  0  0  0  0  0
  -15.9956    3.0366  -21.1912 H   0  0  0  0  0  0  0  0  0  0  0  0
  1 15  1  0  0  0  0
  1  2  1  0  0  0  0
  2 26  1  0  0  0  0
  2 27  1  0  0  0  0
  2  3  1  0  0  0  0
  3  4  2  0  0  0  0
  3  5  1  0  0  0  0
  5  6  1  0  0  0  0
  5 28  1  0  0  0  0
  6 14  2  0  0  0  0
  6  7  1  0  0  0  0
  7  8  1  0  0  0  0
  8 13  2  0  0  0  0
  8  9  1  0  0  0  0
  9 29  1  0  0  0  0
  9 30  1  0  0  0  0
  9 10  1  0  0  0  0
 10 11  1  0  0  0  0
 10 12  1  0  0  0  0
 10 31  1  0  0  0  0
 11 32  1  0  0  0  0
 11 33  1  0  0  0  0
 11 34  1  0  0  0  0
 12 35  1  0  0  0  0
 12 36  1  0  0  0  0
 12 37  1  0  0  0  0
 13 14  1  0  0  0  0
 15 21  1  0  0  0  0
 15 16  2  0  0  0  0
 16 17  1  0  0  0  0
 17 18  2  0  0  0  0
 17 25  1  0  0  0  0
 18 19  1  0  0  0  0
 18 22  1  0  0  0  0
 19 20  2  0  0  0  0
 19 21  1  0  0  0  0
 21 38  1  0  0  0  0
 22 23  2  0  0  0  0
 22 39  1  0  0  0  0
 23 40  1  0  0  0  0
 23 24  1  0  0  0  0
 24 25  2  0  0  0  0
 24 41  1  0  0  0  0
 25 42  1  0  0  0  0
M  END
$$$$
