*****_entry_00001_conf_01
 OpenBabel06232217283D

 46 50  0  0  0  0  0  0  0  0999 V2000
  -11.8402   -2.4689   28.1978 Br  0  0  0  0  0  0  0  0  0  0  0  0
  -11.3100   -0.6656   27.9767 C   0  0  0  0  0  0  0  0  0  0  0  0
  -10.3222   -0.3592   27.0381 C   0  0  0  0  0  0  0  0  0  0  0  0
   -9.9619    0.9898   26.8858 C   0  0  0  0  0  0  0  0  0  0  0  0
   -8.7949    1.6846   25.8285 S   0  0  0  0  0  0  0  0  0  0  0  0
   -9.2034    3.2344   26.4120 C   0  0  0  0  0  0  0  0  0  0  0  0
   -8.5058    4.2295   25.7966 N   0  0  0  0  0  0  0  0  0  0  0  0
   -8.6654    5.5738   26.0530 C   0  0  0  0  0  0  0  0  0  0  0  0
   -9.4605    6.0368   26.8628 O   0  0  0  0  0  0  0  0  0  0  0  0
   -7.7794    6.4322   25.2433 C   0  0  0  0  0  0  0  0  0  0  0  0
   -7.8651    7.8031   24.9921 C   0  0  0  0  0  0  0  0  0  0  0  0
   -8.9650    8.7076   25.4623 C   0  0  0  0  0  0  0  0  0  0  0  0
   -6.7251    8.2618   24.2264 C   0  0  0  0  0  0  0  0  0  0  0  0
   -6.3515    9.6095   23.8105 C   0  0  0  0  0  0  0  0  0  0  0  0
   -7.0222   10.5973   24.0979 O   0  0  0  0  0  0  0  0  0  0  0  0
   -5.1669    9.6718   23.0747 N   0  0  0  0  0  0  0  0  0  0  0  0
   -4.6495   10.9721   22.6678 C   0  0  0  0  0  0  0  0  0  0  0  0
   -4.2068   10.9781   21.2179 C   0  0  0  0  0  0  0  0  0  0  0  0
   -4.7635   10.1439   20.2336 C   0  0  0  0  0  0  0  0  0  0  0  0
   -6.0752    9.0691   20.5635 Cl  0  0  0  0  0  0  0  0  0  0  0  0
   -4.2735   10.1612   18.9227 C   0  0  0  0  0  0  0  0  0  0  0  0
   -3.2309   11.0160   18.5713 C   0  0  0  0  0  0  0  0  0  0  0  0
   -2.6775   11.8592   19.5289 C   0  0  0  0  0  0  0  0  0  0  0  0
   -3.1587   11.8395   20.8395 C   0  0  0  0  0  0  0  0  0  0  0  0
   -4.4604    8.5291   22.7516 C   0  0  0  0  0  0  0  0  0  0  0  0
   -4.7693    7.3231   23.1020 N   0  0  0  0  0  0  0  0  0  0  0  0
   -5.8914    7.2343   23.8536 C   0  0  0  0  0  0  0  0  0  0  0  0
   -6.4083    5.7427   24.4599 S   0  0  0  0  0  0  0  0  0  0  0  0
  -10.1103    3.2912   27.3484 N   0  0  0  0  0  0  0  0  0  0  0  0
  -10.5565    2.0108   27.6334 C   0  0  0  0  0  0  0  0  0  0  0  0
  -11.5402    1.6654   28.5828 C   0  0  0  0  0  0  0  0  0  0  0  0
  -11.9117    0.3252   28.7459 C   0  0  0  0  0  0  0  0  0  0  0  0
   -9.8496   -1.1307   26.4383 H   0  0  0  0  0  0  0  0  0  0  0  0
   -7.8405    3.9457   25.0932 H   0  0  0  0  0  0  0  0  0  0  0  0
   -9.8950    8.1656   25.6501 H   0  0  0  0  0  0  0  0  0  0  0  0
   -9.2030    9.4575   24.7009 H   0  0  0  0  0  0  0  0  0  0  0  0
   -8.6664    9.2233   26.3798 H   0  0  0  0  0  0  0  0  0  0  0  0
   -3.7996   11.2541   23.3017 H   0  0  0  0  0  0  0  0  0  0  0  0
   -5.4173   11.7306   22.8524 H   0  0  0  0  0  0  0  0  0  0  0  0
   -4.7022    9.5073   18.1665 H   0  0  0  0  0  0  0  0  0  0  0  0
   -2.8531   11.0251   17.5519 H   0  0  0  0  0  0  0  0  0  0  0  0
   -1.8664   12.5319   19.2591 H   0  0  0  0  0  0  0  0  0  0  0  0
   -2.7033   12.5075   21.5707 H   0  0  0  0  0  0  0  0  0  0  0  0
   -3.5662    8.6971   22.1346 H   0  0  0  0  0  0  0  0  0  0  0  0
  -12.0069    2.4466   29.1756 H   0  0  0  0  0  0  0  0  0  0  0  0
  -12.6771    0.0724   29.4759 H   0  0  0  0  0  0  0  0  0  0  0  0
  1  2  1  0  0  0  0
  2  3  2  0  0  0  0
  2 32  1  0  0  0  0
  3  4  1  0  0  0  0
  3 33  1  0  0  0  0
  4  5  1  0  0  0  0
  4 30  2  0  0  0  0
  5  6  1  0  0  0  0
  6  7  1  0  0  0  0
  6 29  2  0  0  0  0
  7  8  1  0  0  0  0
  7 34  1  0  0  0  0
  8 10  1  0  0  0  0
  8  9  2  0  0  0  0
 10 11  2  0  0  0  0
 10 28  1  0  0  0  0
 11 13  1  0  0  0  0
 11 12  1  0  0  0  0
 12 35  1  0  0  0  0
 12 36  1  0  0  0  0
 12 37  1  0  0  0  0
 13 14  1  0  0  0  0
 13 27  2  0  0  0  0
 14 15  2  0  0  0  0
 14 16  1  0  0  0  0
 16 17  1  0  0  0  0
 16 25  1  0  0  0  0
 17 18  1  0  0  0  0
 17 38  1  0  0  0  0
 17 39  1  0  0  0  0
 18 24  2  0  0  0  0
 18 19  1  0  0  0  0
 19 20  1  0  0  0  0
 19 21  2  0  0  0  0
 21 22  1  0  0  0  0
 21 40  1  0  0  0  0
 22 23  2  0  0  0  0
 22 41  1  0  0  0  0
 23 24  1  0  0  0  0
 23 42  1  0  0  0  0
 24 43  1  0  0  0  0
 25 44  1  0  0  0  0
 25 26  2  0  0  0  0
 26 27  1  0  0  0  0
 27 28  1  0  0  0  0
 29 30  1  0  0  0  0
 30 31  1  0  0  0  0
 31 45  1  0  0  0  0
 31 32  2  0  0  0  0
 32 46  1  0  0  0  0
M  END
$$$$
