*****_entry_00001_conf_01
 OpenBabel06232217283D

 48 51  0  0  0  0  0  0  0  0999 V2000
    0.2250    4.8184   16.7947 Br  0  0  0  0  0  0  0  0  0  0  0  0
   -0.1328    6.4363   17.7162 C   0  0  0  0  0  0  0  0  0  0  0  0
   -1.2455    6.5475   18.5586 C   0  0  0  0  0  0  0  0  0  0  0  0
   -2.1015    5.4928   18.7338 O   0  0  0  0  0  0  0  0  0  0  0  0
   -1.5001    7.7540   19.2229 C   0  0  0  0  0  0  0  0  0  0  0  0
   -2.6620    7.8663   20.1288 C   0  0  0  0  0  0  0  0  0  0  0  0
   -3.4322    6.8526   20.3709 N   0  0  0  0  0  0  0  0  0  0  0  0
   -4.5149    7.0211   21.2525 C   0  0  0  0  0  0  0  0  0  0  0  0
   -4.6246    8.0953   22.1395 C   0  0  0  0  0  0  0  0  0  0  0  0
   -5.7204    8.1919   23.0046 C   0  0  0  0  0  0  0  0  0  0  0  0
   -5.8301    9.3962   23.8582 C   0  0  0  0  0  0  0  0  0  0  0  0
   -4.8768   10.1641   23.8842 O   0  0  0  0  0  0  0  0  0  0  0  0
   -6.9963    9.4764   24.5962 N   0  0  0  0  0  0  0  0  0  0  0  0
   -7.3626   10.5381   25.4662 C   0  0  0  0  0  0  0  0  0  0  0  0
   -8.6736   10.5788   26.0359 C   0  0  0  0  0  0  0  0  0  0  0  0
   -9.0004   11.6595   26.8996 C   0  0  0  0  0  0  0  0  0  0  0  0
   -8.0591   12.6632   27.1619 C   0  0  0  0  0  0  0  0  0  0  0  0
   -6.7941   12.6187   26.5902 C   0  0  0  0  0  0  0  0  0  0  0  0
   -6.4500   11.5638   25.7515 C   0  0  0  0  0  0  0  0  0  0  0  0
  -10.2639   11.7279   27.5091 C   0  0  0  0  0  0  0  0  0  0  0  0
  -11.2233   10.7438   27.2878 C   0  0  0  0  0  0  0  0  0  0  0  0
  -10.9312    9.6784   26.4495 C   0  0  0  0  0  0  0  0  0  0  0  0
   -9.6779    9.5959   25.8340 C   0  0  0  0  0  0  0  0  0  0  0  0
   -6.7114    7.2071   23.0129 C   0  0  0  0  0  0  0  0  0  0  0  0
   -6.5988    6.1221   22.1451 C   0  0  0  0  0  0  0  0  0  0  0  0
   -5.5059    6.0333   21.2757 C   0  0  0  0  0  0  0  0  0  0  0  0
   -0.6508    8.8517   19.0408 C   0  0  0  0  0  0  0  0  0  0  0  0
    0.4636    8.7178   18.2055 C   0  0  0  0  0  0  0  0  0  0  0  0
    1.3744    9.8492   18.0331 N   0  0  0  0  0  0  0  0  0  0  0  0
    2.3486    9.6928   17.2862 O   0  0  0  0  0  0  0  0  0  0  0  0
    1.1095   10.8900   18.6502 O   0  0  0  0  0  0  0  0  0  0  0  0
    0.7326    7.5154   17.5392 C   0  0  0  0  0  0  0  0  0  0  0  0
   -2.8607    5.7950   19.2676 H   0  0  0  0  0  0  0  0  0  0  0  0
   -2.8381    8.8580   20.5832 H   0  0  0  0  0  0  0  0  0  0  0  0
   -3.8618    8.8692   22.1677 H   0  0  0  0  0  0  0  0  0  0  0  0
   -7.5656    8.6437   24.6229 H   0  0  0  0  0  0  0  0  0  0  0  0
   -8.3030   13.4932   27.8217 H   0  0  0  0  0  0  0  0  0  0  0  0
   -6.0714   13.4040   26.7956 H   0  0  0  0  0  0  0  0  0  0  0  0
   -5.4578   11.5784   25.3091 H   0  0  0  0  0  0  0  0  0  0  0  0
  -10.5088   12.5527   28.1758 H   0  0  0  0  0  0  0  0  0  0  0  0
  -12.1922   10.8086   27.7755 H   0  0  0  0  0  0  0  0  0  0  0  0
  -11.6732    8.9026   26.2785 H   0  0  0  0  0  0  0  0  0  0  0  0
   -9.5004    8.7297   25.2050 H   0  0  0  0  0  0  0  0  0  0  0  0
   -7.5804    7.2945   23.6597 H   0  0  0  0  0  0  0  0  0  0  0  0
   -7.3648    5.3506   22.1295 H   0  0  0  0  0  0  0  0  0  0  0  0
   -5.4246    5.1856   20.5987 H   0  0  0  0  0  0  0  0  0  0  0  0
   -0.8535    9.7880   19.5589 H   0  0  0  0  0  0  0  0  0  0  0  0
    1.6004    7.4219   16.8888 H   0  0  0  0  0  0  0  0  0  0  0  0
  1  2  1  0  0  0  0
  2  3  2  0  0  0  0
  2 32  1  0  0  0  0
  3  5  1  0  0  0  0
  3  4  1  0  0  0  0
  4 33  1  0  0  0  0
  5  6  1  0  0  0  0
  5 27  2  0  0  0  0
  6  7  2  0  0  0  0
  6 34  1  0  0  0  0
  7  8  1  0  0  0  0
  8  9  2  0  0  0  0
  8 26  1  0  0  0  0
  9 10  1  0  0  0  0
  9 35  1  0  0  0  0
 10 11  1  0  0  0  0
 10 24  2  0  0  0  0
 11 13  1  0  0  0  0
 11 12  2  0  0  0  0
 13 36  1  0  0  0  0
 13 14  1  0  0  0  0
 14 15  2  0  0  0  0
 14 19  1  0  0  0  0
 15 16  1  0  0  0  0
 15 23  1  0  0  0  0
 16 17  2  0  0  0  0
 16 20  1  0  0  0  0
 17 18  1  0  0  0  0
 17 37  1  0  0  0  0
 18 19  2  0  0  0  0
 18 38  1  0  0  0  0
 19 39  1  0  0  0  0
 20 40  1  0  0  0  0
 20 21  2  0  0  0  0
 21 22  1  0  0  0  0
 21 41  1  0  0  0  0
 22 23  2  0  0  0  0
 22 42  1  0  0  0  0
 23 43  1  0  0  0  0
 24 25  1  0  0  0  0
 24 44  1  0  0  0  0
 25 26  2  0  0  0  0
 25 45  1  0  0  0  0
 26 46  1  0  0  0  0
 27 47  1  0  0  0  0
 27 28  1  0  0  0  0
 28 29  1  0  0  0  0
 28 32  2  0  0  0  0
 29 30  1  0  0  0  0
 29 31  1  0  0  0  0
 32 48  1  0  0  0  0
M  END
$$$$
