*****_entry_00001_conf_01
 OpenBabel06232217283D

 55 59  0  0  0  0  0  0  0  0999 V2000
   -0.6091    8.3820   17.9087 F   0  0  0  0  0  0  0  0  0  0  0  0
   -1.6384    8.1846   18.7417 C   0  0  0  0  0  0  0  0  0  0  0  0
   -2.1517    6.9087   18.9107 C   0  0  0  0  0  0  0  0  0  0  0  0
   -3.2240    6.7001   19.7881 C   0  0  0  0  0  0  0  0  0  0  0  0
   -3.8003    7.7621   20.5083 C   0  0  0  0  0  0  0  0  0  0  0  0
   -4.8768    7.5671   21.4626 N   0  0  0  0  0  0  0  0  0  0  0  0
   -4.9258    8.3404   22.6280 C   0  0  0  0  0  0  0  0  0  0  0  0
   -3.9931    8.9919   23.0981 O   0  0  0  0  0  0  0  0  0  0  0  0
   -6.2637    8.4016   23.3003 C   0  0  0  0  0  0  0  0  0  0  0  0
   -6.4332    9.4026   24.1904 C   0  0  0  0  0  0  0  0  0  0  0  0
   -7.5743    9.7730   24.9645 C   0  0  0  0  0  0  0  0  0  0  0  0
   -7.7202   10.9881   25.7031 C   0  0  0  0  0  0  0  0  0  0  0  0
   -8.9716   10.9484   26.3272 C   0  0  0  0  0  0  0  0  0  0  0  0
   -9.5551    9.7495   25.9730 N   0  0  0  0  0  0  0  0  0  0  0  0
  -10.8916    9.3135   26.3514 C   0  0  0  0  0  0  0  0  0  0  0  0
  -11.4401    8.1221   25.5810 C   0  0  0  0  0  0  0  0  0  0  0  0
  -11.0485    6.9945   25.8854 O   0  0  0  0  0  0  0  0  0  0  0  0
  -12.4051    8.3996   24.6290 N   0  0  0  0  0  0  0  0  0  0  0  0
  -13.1792    7.4784   23.8914 C   0  0  0  0  0  0  0  0  0  0  0  0
  -13.9969    7.8248   22.8144 C   0  0  0  0  0  0  0  0  0  0  0  0
  -14.7099    6.8418   22.1197 C   0  0  0  0  0  0  0  0  0  0  0  0
  -14.6117    5.5046   22.4957 C   0  0  0  0  0  0  0  0  0  0  0  0
  -13.8004    5.1478   23.5688 C   0  0  0  0  0  0  0  0  0  0  0  0
  -13.0870    6.1296   24.2617 C   0  0  0  0  0  0  0  0  0  0  0  0
   -8.6964    9.0125   25.1947 C   0  0  0  0  0  0  0  0  0  0  0  0
   -9.4361   11.9996   27.1340 C   0  0  0  0  0  0  0  0  0  0  0  0
   -8.6096   13.1147   27.3016 C   0  0  0  0  0  0  0  0  0  0  0  0
   -7.3633   13.1819   26.6878 C   0  0  0  0  0  0  0  0  0  0  0  0
   -6.9084   12.1287   25.8884 C   0  0  0  0  0  0  0  0  0  0  0  0
   -7.2986    7.4314   22.9004 C   0  0  0  0  0  0  0  0  0  0  0  0
   -8.4891    7.4901   23.1730 O   0  0  0  0  0  0  0  0  0  0  0  0
   -6.8259    6.4241   22.1202 N   0  0  0  0  0  0  0  0  0  0  0  0
   -5.8026    6.5517   21.2269 C   0  0  0  0  0  0  0  0  0  0  0  0
   -5.7799    5.7431   20.2987 O   0  0  0  0  0  0  0  0  0  0  0  0
   -3.2517    9.0457   20.3064 C   0  0  0  0  0  0  0  0  0  0  0  0
   -2.1803    9.2568   19.4306 C   0  0  0  0  0  0  0  0  0  0  0  0
   -1.7206    6.0784   18.3597 H   0  0  0  0  0  0  0  0  0  0  0  0
   -3.6078    5.6855   19.8553 H   0  0  0  0  0  0  0  0  0  0  0  0
   -5.5945   10.0851   24.3395 H   0  0  0  0  0  0  0  0  0  0  0  0
  -11.5734   10.1594   26.2113 H   0  0  0  0  0  0  0  0  0  0  0  0
  -10.8635    9.0693   27.4188 H   0  0  0  0  0  0  0  0  0  0  0  0
  -12.5607    9.3728   24.3913 H   0  0  0  0  0  0  0  0  0  0  0  0
  -14.0985    8.8517   22.4789 H   0  0  0  0  0  0  0  0  0  0  0  0
  -15.3401    7.1268   21.2809 H   0  0  0  0  0  0  0  0  0  0  0  0
  -15.1663    4.7441   21.9524 H   0  0  0  0  0  0  0  0  0  0  0  0
  -13.7210    4.1057   23.8670 H   0  0  0  0  0  0  0  0  0  0  0  0
  -12.4606    5.8225   25.0955 H   0  0  0  0  0  0  0  0  0  0  0  0
   -8.9781    8.0283   24.8409 H   0  0  0  0  0  0  0  0  0  0  0  0
  -10.4082   11.9645   27.6171 H   0  0  0  0  0  0  0  0  0  0  0  0
   -8.9494   13.9441   27.9184 H   0  0  0  0  0  0  0  0  0  0  0  0
   -6.7379   14.0605   26.8262 H   0  0  0  0  0  0  0  0  0  0  0  0
   -5.9352   12.1974   25.4102 H   0  0  0  0  0  0  0  0  0  0  0  0
   -7.5279    5.7560   21.8288 H   0  0  0  0  0  0  0  0  0  0  0  0
   -3.6189    9.9119   20.8530 H   0  0  0  0  0  0  0  0  0  0  0  0
   -1.7657   10.2507   19.2939 H   0  0  0  0  0  0  0  0  0  0  0  0
  1  2  1  0  0  0  0
  2 36  2  0  0  0  0
  2  3  1  0  0  0  0
  3  4  2  0  0  0  0
  3 37  1  0  0  0  0
  4 38  1  0  0  0  0
  4  5  1  0  0  0  0
  5  6  1  0  0  0  0
  5 35  2  0  0  0  0
  6  7  1  0  0  0  0
  6 33  1  0  0  0  0
  7  8  2  0  0  0  0
  7  9  1  0  0  0  0
  9 10  2  0  0  0  0
  9 30  1  0  0  0  0
 10 39  1  0  0  0  0
 10 11  1  0  0  0  0
 11 12  1  0  0  0  0
 11 25  2  0  0  0  0
 12 13  2  0  0  0  0
 12 29  1  0  0  0  0
 13 14  1  0  0  0  0
 13 26  1  0  0  0  0
 14 25  1  0  0  0  0
 14 15  1  0  0  0  0
 15 16  1  0  0  0  0
 15 40  1  0  0  0  0
 15 41  1  0  0  0  0
 16 18  1  0  0  0  0
 16 17  2  0  0  0  0
 18 19  1  0  0  0  0
 18 42  1  0  0  0  0
 19 24  2  0  0  0  0
 19 20  1  0  0  0  0
 20 43  1  0  0  0  0
 20 21  2  0  0  0  0
 21 44  1  0  0  0  0
 21 22  1  0  0  0  0
 22 45  1  0  0  0  0
 22 23  2  0  0  0  0
 23 24  1  0  0  0  0
 23 46  1  0  0  0  0
 24 47  1  0  0  0  0
 25 48  1  0  0  0  0
 26 49  1  0  0  0  0
 26 27  2  0  0  0  0
 27 28  1  0  0  0  0
 27 50  1  0  0  0  0
 28 51  1  0  0  0  0
 28 29  2  0  0  0  0
 29 52  1  0  0  0  0
 30 31  2  0  0  0  0
 30 32  1  0  0  0  0
 32 33  1  0  0  0  0
 32 53  1  0  0  0  0
 33 34  2  0  0  0  0
 35 36  1  0  0  0  0
 35 54  1  0  0  0  0
 36 55  1  0  0  0  0
M  END
$$$$
