*****_entry_00001_conf_01
 OpenBabel06232217283D

 53 58  0  0  0  0  0  0  0  0999 V2000
   -4.8639    6.4120   20.4388 O   0  0  0  0  0  0  0  0  0  0  0  0
   -4.7938    7.5646   20.8583 C   0  0  0  0  0  0  0  0  0  0  0  0
   -3.9469    8.5289   20.3337 N   0  0  0  0  0  0  0  0  0  0  0  0
   -3.1486    8.2437   19.2639 N   0  0  0  0  0  0  0  0  0  0  0  0
   -2.4416    7.1596   19.3727 C   0  0  0  0  0  0  0  0  0  0  0  0
   -1.5206    6.7135   18.2969 C   0  0  0  0  0  0  0  0  0  0  0  0
   -0.5623    5.7236   18.5784 C   0  0  0  0  0  0  0  0  0  0  0  0
   -0.4259    5.1110   19.7960 O   0  0  0  0  0  0  0  0  0  0  0  0
    0.3298    5.3041   17.6016 C   0  0  0  0  0  0  0  0  0  0  0  0
    0.2779    5.8654   16.3298 C   0  0  0  0  0  0  0  0  0  0  0  0
   -0.6702    6.8482   16.0119 C   0  0  0  0  0  0  0  0  0  0  0  0
   -1.5985    7.2928   16.9914 C   0  0  0  0  0  0  0  0  0  0  0  0
   -2.5349    8.2800   16.5791 C   0  0  0  0  0  0  0  0  0  0  0  0
   -2.5449    8.8017   15.2822 C   0  0  0  0  0  0  0  0  0  0  0  0
   -1.6213    8.3561   14.3504 C   0  0  0  0  0  0  0  0  0  0  0  0
   -0.6920    7.3853   14.7139 C   0  0  0  0  0  0  0  0  0  0  0  0
   -5.6180    8.0213   21.9496 C   0  0  0  0  0  0  0  0  0  0  0  0
   -6.6092    7.2383   22.4721 N   0  0  0  0  0  0  0  0  0  0  0  0
   -6.8586    6.2977   22.1791 H   0  0  0  0  0  0  0  0  0  0  0  0
   -7.3067    7.8190   23.4598 N   0  0  0  0  0  0  0  0  0  0  0  0
   -6.7417    9.0245   23.6167 C   0  0  0  0  0  0  0  0  0  0  0  0
   -7.2183   10.0112   24.5958 C   0  0  0  0  0  0  0  0  0  0  0  0
   -8.4783    9.8945   25.2585 C   0  0  0  0  0  0  0  0  0  0  0  0
   -8.7749   10.8862   26.1642 C   0  0  0  0  0  0  0  0  0  0  0  0
   -7.9444   11.9506   26.4559 C   0  0  0  0  0  0  0  0  0  0  0  0
   -6.7189   12.1037   25.8308 C   0  0  0  0  0  0  0  0  0  0  0  0
   -6.3731   11.1151   24.8952 C   0  0  0  0  0  0  0  0  0  0  0  0
   -8.5691   12.8339   27.4801 C   0  0  0  0  0  0  0  0  0  0  0  0
   -9.9356   12.1482   27.7864 C   0  0  0  0  0  0  0  0  0  0  0  0
   -9.9412   10.9474   26.9058 C   0  0  0  0  0  0  0  0  0  0  0  0
  -10.9285    9.9818   26.7820 C   0  0  0  0  0  0  0  0  0  0  0  0
  -10.6723    8.9453   25.8751 C   0  0  0  0  0  0  0  0  0  0  0  0
   -9.4762    8.8930   25.1312 C   0  0  0  0  0  0  0  0  0  0  0  0
   -5.6741    9.1883   22.6857 C   0  0  0  0  0  0  0  0  0  0  0  0
   -3.9378    9.4616   20.7241 H   0  0  0  0  0  0  0  0  0  0  0  0
   -2.5216    6.5441   20.2805 H   0  0  0  0  0  0  0  0  0  0  0  0
   -0.4508    4.1359   19.6652 H   0  0  0  0  0  0  0  0  0  0  0  0
    1.0676    4.5398   17.8326 H   0  0  0  0  0  0  0  0  0  0  0  0
    0.9904    5.5209   15.5823 H   0  0  0  0  0  0  0  0  0  0  0  0
   -3.2898    8.6669   17.2561 H   0  0  0  0  0  0  0  0  0  0  0  0
   -3.2778    9.5554   15.0042 H   0  0  0  0  0  0  0  0  0  0  0  0
   -1.6232    8.7587   13.3409 H   0  0  0  0  0  0  0  0  0  0  0  0
    0.0226    7.0461   13.9657 H   0  0  0  0  0  0  0  0  0  0  0  0
   -6.0698   12.9435   26.0497 H   0  0  0  0  0  0  0  0  0  0  0  0
   -5.4226   11.2267   24.3767 H   0  0  0  0  0  0  0  0  0  0  0  0
   -8.7151   13.8433   27.0825 H   0  0  0  0  0  0  0  0  0  0  0  0
   -7.9444   12.8839   28.3780 H   0  0  0  0  0  0  0  0  0  0  0  0
  -10.7718   12.8111   27.5414 H   0  0  0  0  0  0  0  0  0  0  0  0
  -10.0010   11.8547   28.8391 H   0  0  0  0  0  0  0  0  0  0  0  0
  -11.8465   10.0297   27.3561 H   0  0  0  0  0  0  0  0  0  0  0  0
  -11.4147    8.1620   25.7371 H   0  0  0  0  0  0  0  0  0  0  0  0
   -9.3348    8.0645   24.4415 H   0  0  0  0  0  0  0  0  0  0  0  0
   -5.0455   10.0606   22.5851 H   0  0  0  0  0  0  0  0  0  0  0  0
  1  2  2  0  0  0  0
  2 17  1  0  0  0  0
  2  3  1  0  0  0  0
  3 35  1  0  0  0  0
  3  4  1  0  0  0  0
  4  5  2  0  0  0  0
  5  6  1  0  0  0  0
  5 36  1  0  0  0  0
  6  7  2  0  0  0  0
  6 12  1  0  0  0  0
  7  8  1  0  0  0  0
  7  9  1  0  0  0  0
  8 37  1  0  0  0  0
  9 10  2  0  0  0  0
  9 38  1  0  0  0  0
 10 11  1  0  0  0  0
 10 39  1  0  0  0  0
 11 12  2  0  0  0  0
 11 16  1  0  0  0  0
 12 13  1  0  0  0  0
 13 14  2  0  0  0  0
 13 40  1  0  0  0  0
 14 15  1  0  0  0  0
 14 41  1  0  0  0  0
 15 16  2  0  0  0  0
 15 42  1  0  0  0  0
 16 43  1  0  0  0  0
 17 18  1  0  0  0  0
 17 34  2  0  0  0  0
 18 19  1  0  0  0  0
 18 20  1  0  0  0  0
 20 21  2  0  0  0  0
 21 34  1  0  0  0  0
 21 22  1  0  0  0  0
 22 23  2  0  0  0  0
 22 27  1  0  0  0  0
 23 24  1  0  0  0  0
 23 33  1  0  0  0  0
 24 25  2  0  0  0  0
 24 30  1  0  0  0  0
 25 26  1  0  0  0  0
 25 28  1  0  0  0  0
 26 27  2  0  0  0  0
 26 44  1  0  0  0  0
 27 45  1  0  0  0  0
 28 29  1  0  0  0  0
 28 46  1  0  0  0  0
 28 47  1  0  0  0  0
 29 30  1  0  0  0  0
 29 49  1  0  0  0  0
 29 48  1  0  0  0  0
 30 31  2  0  0  0  0
 31 32  1  0  0  0  0
 31 50  1  0  0  0  0
 32 33  2  0  0  0  0
 32 51  1  0  0  0  0
 33 52  1  0  0  0  0
 34 53  1  0  0  0  0
M  END
$$$$
