*****_entry_00001_conf_01
 OpenBabel06232217283D

 58 61  0  0  1  0  0  0  0  0999 V2000
  -10.6324    3.9207   29.8413 S   0  0  0  0  0  0  0  0  0  0  0  0
  -12.3047    3.2101   29.7654 C   0  0  0  0  0  0  0  0  0  0  0  0
  -12.3997    1.7378   29.3767 C   0  0  0  0  0  0  0  0  0  0  0  0
  -13.0261    0.9707   30.1090 O   0  0  0  0  0  0  0  0  0  0  0  0
  -11.7159    1.3732   28.2335 N   0  0  0  0  0  0  0  0  0  0  0  0
  -11.5709    0.0732   27.7017 C   0  0  0  0  0  0  0  0  0  0  0  0
  -11.1027   -0.0813   26.3807 C   0  0  0  0  0  0  0  0  0  0  0  0
  -10.7741    1.0908   25.4957 C   0  0  0  0  0  0  0  0  0  0  0  0
  -10.9344   -1.3763   25.8614 C   0  0  0  0  0  0  0  0  0  0  0  0
  -11.2234   -2.5020   26.6324 C   0  0  0  0  0  0  0  0  0  0  0  0
  -11.6867   -2.3568   27.9400 C   0  0  0  0  0  0  0  0  0  0  0  0
  -11.9448   -3.5640   28.7921 C   0  0  0  0  0  0  0  0  0  0  0  0
  -11.8481   -1.0679   28.4664 C   0  0  0  0  0  0  0  0  0  0  0  0
  -10.3859    4.2874   28.1653 C   0  0  0  0  0  0  0  0  0  0  0  0
  -11.3298    4.1675   27.2999 N   0  0  0  0  0  0  0  0  0  0  0  0
  -11.0141    4.4739   25.9987 C   0  0  0  0  0  0  0  0  0  0  0  0
   -9.7959    4.8575   25.5856 C   0  0  0  0  0  0  0  0  0  0  0  0
   -8.7364    4.9788   26.6069 C   0  0  0  0  0  0  0  0  0  0  0  0
   -7.6011    5.3524   26.3336 O   0  0  0  0  0  0  0  0  0  0  0  0
   -9.1176    4.6704   27.8779 N   0  0  0  0  0  0  0  0  0  0  0  0
   -9.4650    5.2269   24.1716 C   0  0  0  0  0  0  0  0  0  0  0  0
  -10.5498    4.9587   23.1927 N   0  3  2  0  0  0  0  0  0  0  0  0
  -10.2638    5.7117   21.9543 C   0  0  0  0  0  0  0  0  0  0  0  0
   -8.8004    5.8497   21.5778 C   0  0  0  0  0  0  0  0  0  0  0  0
   -8.1193    7.0353   21.9093 C   0  0  0  0  0  0  0  0  0  0  0  0
   -6.7696    7.1936   21.5925 C   0  0  0  0  0  0  0  0  0  0  0  0
   -6.0938    6.1654   20.9493 C   0  0  0  0  0  0  0  0  0  0  0  0
   -4.8013    6.3227   20.6347 F   0  0  0  0  0  0  0  0  0  0  0  0
   -6.7375    4.9754   20.6328 C   0  0  0  0  0  0  0  0  0  0  0  0
   -8.0852    4.8104   20.9611 C   0  0  0  0  0  0  0  0  0  0  0  0
  -11.8593    5.3034   23.7755 C   0  0  0  0  0  0  0  0  0  0  0  0
  -12.1457    4.4265   25.0062 C   0  0  0  0  0  0  0  0  0  0  0  0
  -12.9136    3.7962   29.0689 H   0  0  0  0  0  0  0  0  0  0  0  0
  -12.7480    3.3030   30.7624 H   0  0  0  0  0  0  0  0  0  0  0  0
  -11.4625    2.1440   27.6296 H   0  0  0  0  0  0  0  0  0  0  0  0
  -11.5941    1.8158   25.4900 H   0  0  0  0  0  0  0  0  0  0  0  0
  -10.6228    0.7794   24.4565 H   0  0  0  0  0  0  0  0  0  0  0  0
   -9.8560    1.5768   25.8402 H   0  0  0  0  0  0  0  0  0  0  0  0
  -10.5774   -1.5183   24.8434 H   0  0  0  0  0  0  0  0  0  0  0  0
  -11.0814   -3.4926   26.2066 H   0  0  0  0  0  0  0  0  0  0  0  0
  -12.4393   -4.3484   28.2101 H   0  0  0  0  0  0  0  0  0  0  0  0
  -12.5994   -3.3221   29.6360 H   0  0  0  0  0  0  0  0  0  0  0  0
  -10.9998   -3.9518   29.1854 H   0  0  0  0  0  0  0  0  0  0  0  0
  -12.1719   -0.9737   29.4994 H   0  0  0  0  0  0  0  0  0  0  0  0
   -8.4315    4.7460   28.6122 H   0  0  0  0  0  0  0  0  0  0  0  0
   -8.5779    4.6667   23.8517 H   0  0  0  0  0  0  0  0  0  0  0  0
   -9.2032    6.2939   24.1663 H   0  0  0  0  0  0  0  0  0  0  0  0
  -10.6535    6.7330   22.0591 H   0  0  0  0  0  0  0  0  0  0  0  0
  -10.7987    5.2460   21.1154 H   0  0  0  0  0  0  0  0  0  0  0  0
   -8.6392    7.8453   22.4169 H   0  0  0  0  0  0  0  0  0  0  0  0
   -6.2444    8.1096   21.8427 H   0  0  0  0  0  0  0  0  0  0  0  0
   -6.1881    4.1846   20.1326 H   0  0  0  0  0  0  0  0  0  0  0  0
   -8.5839    3.8748   20.7152 H   0  0  0  0  0  0  0  0  0  0  0  0
  -12.6720    5.1292   23.0624 H   0  0  0  0  0  0  0  0  0  0  0  0
  -11.8955    6.3657   24.0517 H   0  0  0  0  0  0  0  0  0  0  0  0
  -12.3050    3.3843   24.7002 H   0  0  0  0  0  0  0  0  0  0  0  0
  -13.0738    4.7736   25.4758 H   0  0  0  0  0  0  0  0  0  0  0  0
  -10.5451    3.9040   22.9604 H   0  0  0  0  0  0  0  0  0  0  0  0
  1 14  1  0  0  0  0
  1  2  1  0  0  0  0
  2  3  1  0  0  0  0
  2 34  1  0  0  0  0
  2 33  1  0  0  0  0
  3  4  2  0  0  0  0
  3  5  1  0  0  0  0
  5  6  1  0  0  0  0
  5 35  1  0  0  0  0
  6 13  2  0  0  0  0
  6  7  1  0  0  0  0
  7  8  1  0  0  0  0
  7  9  2  0  0  0  0
  8 36  1  0  0  0  0
  8 37  1  0  0  0  0
  8 38  1  0  0  0  0
  9 39  1  0  0  0  0
  9 10  1  0  0  0  0
 10 40  1  0  0  0  0
 10 11  2  0  0  0  0
 11 13  1  0  0  0  0
 11 12  1  0  0  0  0
 12 41  1  0  0  0  0
 12 42  1  0  0  0  0
 12 43  1  0  0  0  0
 13 44  1  0  0  0  0
 14 20  1  0  0  0  0
 14 15  2  0  0  0  0
 15 16  1  0  0  0  0
 16 17  2  0  0  0  0
 16 32  1  0  0  0  0
 17 18  1  0  0  0  0
 17 21  1  0  0  0  0
 18 19  2  0  0  0  0
 18 20  1  0  0  0  0
 20 45  1  0  0  0  0
 21 46  1  0  0  0  0
 21 47  1  0  0  0  0
 21 22  1  0  0  0  0
 22 23  1  0  0  0  0
 22 31  1  0  0  0  0
 22 58  1  6  0  0  0
 23 24  1  0  0  0  0
 23 48  1  0  0  0  0
 23 49  1  0  0  0  0
 24 25  2  0  0  0  0
 24 30  1  0  0  0  0
 25 50  1  0  0  0  0
 25 26  1  0  0  0  0
 26 51  1  0  0  0  0
 26 27  2  0  0  0  0
 27 29  1  0  0  0  0
 27 28  1  0  0  0  0
 29 30  2  0  0  0  0
 29 52  1  0  0  0  0
 30 53  1  0  0  0  0
 31 32  1  0  0  0  0
 31 54  1  0  0  0  0
 31 55  1  0  0  0  0
 32 56  1  0  0  0  0
 32 57  1  0  0  0  0
M  CHG  1  22   1
M  END
$$$$
