*****_entry_00001_conf_01
 OpenBabel06232217283D

 53 56  0  0  0  0  0  0  0  0999 V2000
  -12.0410   -3.7423   28.1571 Cl  0  0  0  0  0  0  0  0  0  0  0  0
  -11.5080   -2.2037   27.6065 C   0  0  0  0  0  0  0  0  0  0  0  0
  -11.2230   -1.1968   28.5197 C   0  0  0  0  0  0  0  0  0  0  0  0
  -10.7800    0.0551   28.0684 C   0  0  0  0  0  0  0  0  0  0  0  0
  -10.6035    0.3259   26.6998 C   0  0  0  0  0  0  0  0  0  0  0  0
  -10.0952    1.6009   26.2211 N   0  0  0  0  0  0  0  0  0  0  0  0
  -11.0003    2.5424   25.6718 C   0  0  0  0  0  0  0  0  0  0  0  0
  -12.2138    2.3812   25.5221 O   0  0  0  0  0  0  0  0  0  0  0  0
  -10.4995    3.7745   25.3179 N   0  0  0  0  0  0  0  0  0  0  0  0
   -9.2000    4.1333   25.5242 C   0  0  0  0  0  0  0  0  0  0  0  0
   -8.5399    5.3723   25.3300 C   0  0  0  0  0  0  0  0  0  0  0  0
   -9.1526    6.6103   24.8547 C   0  0  0  0  0  0  0  0  0  0  0  0
   -8.4831    7.4901   24.3190 O   0  0  0  0  0  0  0  0  0  0  0  0
  -10.5175    6.7036   25.0193 N   0  0  0  0  0  0  0  0  0  0  0  0
  -11.2709    7.8294   24.5032 C   0  0  0  0  0  0  0  0  0  0  0  0
  -10.6139    9.1548   24.8829 C   0  0  0  0  0  0  0  0  0  0  0  0
  -10.5366    9.3480   26.3942 C   0  0  0  0  0  0  0  0  0  0  0  0
   -9.8054   10.5336   26.8086 N   0  0  0  0  0  0  0  0  0  0  0  0
  -10.4650   11.6692   27.2760 C   0  0  0  0  0  0  0  0  0  0  0  0
  -11.6401   11.7476   27.5955 O   0  0  0  0  0  0  0  0  0  0  0  0
   -9.4909   12.8223   27.2484 C   0  0  0  0  0  0  0  0  0  0  0  0
   -8.1486   12.1406   27.0226 C   0  0  0  0  0  0  0  0  0  0  0  0
   -8.5136   10.8814   26.2634 C   0  0  0  0  0  0  0  0  0  0  0  0
   -7.2229    5.1382   25.7094 C   0  0  0  0  0  0  0  0  0  0  0  0
   -7.1059    3.8265   26.1184 N   0  0  0  0  0  0  0  0  0  0  0  0
   -5.8887    3.2169   26.6101 C   0  0  0  0  0  0  0  0  0  0  0  0
   -8.3251    3.2092   26.0131 C   0  0  0  0  0  0  0  0  0  0  0  0
   -8.7035    1.8574   26.3286 C   0  0  0  0  0  0  0  0  0  0  0  0
   -7.8484    1.0247   26.6231 O   0  0  0  0  0  0  0  0  0  0  0  0
  -10.9074   -0.7163   25.8020 C   0  0  0  0  0  0  0  0  0  0  0  0
  -11.3572   -1.9666   26.2471 C   0  0  0  0  0  0  0  0  0  0  0  0
  -11.3394   -1.3706   29.5865 H   0  0  0  0  0  0  0  0  0  0  0  0
  -10.6019    0.8140   28.8264 H   0  0  0  0  0  0  0  0  0  0  0  0
  -11.1506    4.4673   24.9584 H   0  0  0  0  0  0  0  0  0  0  0  0
  -11.0253    5.9192   25.3994 H   0  0  0  0  0  0  0  0  0  0  0  0
  -12.2935    7.7709   24.8908 H   0  0  0  0  0  0  0  0  0  0  0  0
  -11.3122    7.7191   23.4146 H   0  0  0  0  0  0  0  0  0  0  0  0
  -11.1947    9.9794   24.4504 H   0  0  0  0  0  0  0  0  0  0  0  0
   -9.6138    9.2252   24.4395 H   0  0  0  0  0  0  0  0  0  0  0  0
  -10.0778    8.4679   26.8599 H   0  0  0  0  0  0  0  0  0  0  0  0
  -11.5480    9.4340   26.8088 H   0  0  0  0  0  0  0  0  0  0  0  0
   -9.5114   13.3761   28.1899 H   0  0  0  0  0  0  0  0  0  0  0  0
   -9.7487   13.4813   26.4137 H   0  0  0  0  0  0  0  0  0  0  0  0
   -7.7056   11.8764   27.9911 H   0  0  0  0  0  0  0  0  0  0  0  0
   -7.4340   12.7702   26.4854 H   0  0  0  0  0  0  0  0  0  0  0  0
   -7.7854   10.0834   26.4251 H   0  0  0  0  0  0  0  0  0  0  0  0
   -8.6269   11.0766   25.1915 H   0  0  0  0  0  0  0  0  0  0  0  0
   -6.3582    5.7880   25.7306 H   0  0  0  0  0  0  0  0  0  0  0  0
   -5.0949    3.9675   26.6454 H   0  0  0  0  0  0  0  0  0  0  0  0
   -5.6051    2.4113   25.9286 H   0  0  0  0  0  0  0  0  0  0  0  0
   -6.0740    2.8349   27.6173 H   0  0  0  0  0  0  0  0  0  0  0  0
  -10.7673   -0.6007   24.7298 H   0  0  0  0  0  0  0  0  0  0  0  0
  -11.5747   -2.7472   25.5227 H   0  0  0  0  0  0  0  0  0  0  0  0
  1  2  1  0  0  0  0
  2  3  2  0  0  0  0
  2 31  1  0  0  0  0
  3 32  1  0  0  0  0
  3  4  1  0  0  0  0
  4  5  2  0  0  0  0
  4 33  1  0  0  0  0
  5  6  1  0  0  0  0
  5 30  1  0  0  0  0
  6  7  1  0  0  0  0
  6 28  1  0  0  0  0
  7  8  2  0  0  0  0
  7  9  1  0  0  0  0
  9 10  1  0  0  0  0
  9 34  1  0  0  0  0
 10 11  1  0  0  0  0
 10 27  2  0  0  0  0
 11 12  1  0  0  0  0
 11 24  2  0  0  0  0
 12 13  2  0  0  0  0
 12 14  1  0  0  0  0
 14 15  1  0  0  0  0
 14 35  1  0  0  0  0
 15 36  1  0  0  0  0
 15 37  1  0  0  0  0
 15 16  1  0  0  0  0
 16 38  1  0  0  0  0
 16 17  1  0  0  0  0
 16 39  1  0  0  0  0
 17 40  1  0  0  0  0
 17 18  1  0  0  0  0
 17 41  1  0  0  0  0
 18 23  1  0  0  0  0
 18 19  1  0  0  0  0
 19 20  2  0  0  0  0
 19 21  1  0  0  0  0
 21 43  1  0  0  0  0
 21 22  1  0  0  0  0
 21 42  1  0  0  0  0
 22 23  1  0  0  0  0
 22 44  1  0  0  0  0
 22 45  1  0  0  0  0
 23 47  1  0  0  0  0
 23 46  1  0  0  0  0
 24 25  1  0  0  0  0
 24 48  1  0  0  0  0
 25 27  1  0  0  0  0
 25 26  1  0  0  0  0
 26 49  1  0  0  0  0
 26 50  1  0  0  0  0
 26 51  1  0  0  0  0
 27 28  1  0  0  0  0
 28 29  2  0  0  0  0
 30 31  2  0  0  0  0
 30 52  1  0  0  0  0
 31 53  1  0  0  0  0
M  END
$$$$
