*****_entry_00001_conf_01
 OpenBabel06232217283D

 48 50  0  0  0  0  0  0  0  0999 V2000
   -4.9099    7.3798   22.6594 O   0  0  0  0  0  0  0  0  0  0  0  0
   -5.5646    8.3112   23.1233 C   0  0  0  0  0  0  0  0  0  0  0  0
   -5.3641    9.6416   22.8389 N   0  0  0  0  0  0  0  0  0  0  0  0
   -4.5080   10.1761   21.8456 C   0  0  0  0  0  0  0  0  0  0  0  0
   -4.4963   11.5726   21.6578 C   0  0  0  0  0  0  0  0  0  0  0  0
   -5.3037   12.3030   22.4971 O   0  0  0  0  0  0  0  0  0  0  0  0
   -5.2219   13.7193   22.3732 C   0  0  0  0  0  0  0  0  0  0  0  0
   -3.6490   12.1312   20.6953 C   0  0  0  0  0  0  0  0  0  0  0  0
   -2.8725   11.3046   19.8794 C   0  0  0  0  0  0  0  0  0  0  0  0
   -2.9429    9.9202   20.0091 C   0  0  0  0  0  0  0  0  0  0  0  0
   -2.1917    9.2001   19.1196 O   0  0  0  0  0  0  0  0  0  0  0  0
   -2.2518    7.7862   19.2982 C   0  0  0  0  0  0  0  0  0  0  0  0
   -3.7296    9.3607   21.0157 C   0  0  0  0  0  0  0  0  0  0  0  0
   -6.6476    8.0178   24.1072 C   0  0  0  0  0  0  0  0  0  0  0  0
   -7.4941    9.0432   24.7671 C   0  0  0  0  0  0  0  0  0  0  0  0
   -7.1552   10.2258   24.6753 O   0  0  0  0  0  0  0  0  0  0  0  0
   -8.5980    8.5826   25.5004 N   0  0  0  0  0  0  0  0  0  0  0  0
   -9.5417    9.5474   26.0056 C   0  0  0  0  0  0  0  0  0  0  0  0
   -9.0905   10.7730   26.5333 C   0  0  0  0  0  0  0  0  0  0  0  0
   -9.9938   11.7391   26.9864 C   0  0  0  0  0  0  0  0  0  0  0  0
   -9.6694   12.9741   27.4784 O   0  0  0  0  0  0  0  0  0  0  0  0
   -8.3264   13.4062   27.2958 C   0  0  0  0  0  0  0  0  0  0  0  0
  -11.3610   11.4675   26.9508 C   0  0  0  0  0  0  0  0  0  0  0  0
  -11.8269   10.2584   26.4409 C   0  0  0  0  0  0  0  0  0  0  0  0
  -10.9231    9.3104   25.9593 C   0  0  0  0  0  0  0  0  0  0  0  0
   -8.7954    7.2269   25.7876 C   0  0  0  0  0  0  0  0  0  0  0  0
   -9.7083    6.7380   26.4516 O   0  0  0  0  0  0  0  0  0  0  0  0
   -7.8954    6.3621   25.2193 N   0  0  0  0  0  0  0  0  0  0  0  0
   -6.8910    6.7319   24.3804 C   0  0  0  0  0  0  0  0  0  0  0  0
   -5.8476   10.3431   23.4022 H   0  0  0  0  0  0  0  0  0  0  0  0
   -6.0041   14.1560   23.0016 H   0  0  0  0  0  0  0  0  0  0  0  0
   -5.4053   14.0368   21.3410 H   0  0  0  0  0  0  0  0  0  0  0  0
   -4.2604   14.0957   22.7372 H   0  0  0  0  0  0  0  0  0  0  0  0
   -3.5628   13.2034   20.5573 H   0  0  0  0  0  0  0  0  0  0  0  0
   -2.2241   11.7418   19.1242 H   0  0  0  0  0  0  0  0  0  0  0  0
   -1.8244    7.3177   18.4066 H   0  0  0  0  0  0  0  0  0  0  0  0
   -3.2872    7.4381   19.3930 H   0  0  0  0  0  0  0  0  0  0  0  0
   -1.6527    7.4711   20.1582 H   0  0  0  0  0  0  0  0  0  0  0  0
   -3.7553    8.2851   21.1348 H   0  0  0  0  0  0  0  0  0  0  0  0
   -8.0255   10.9780   26.5534 H   0  0  0  0  0  0  0  0  0  0  0  0
   -8.2526   14.4338   27.6646 H   0  0  0  0  0  0  0  0  0  0  0  0
   -8.0522   13.4143   26.2352 H   0  0  0  0  0  0  0  0  0  0  0  0
   -7.6333   12.7918   27.8792 H   0  0  0  0  0  0  0  0  0  0  0  0
  -12.0685   12.2090   27.3139 H   0  0  0  0  0  0  0  0  0  0  0  0
  -12.8941   10.0544   26.4138 H   0  0  0  0  0  0  0  0  0  0  0  0
  -11.3212    8.3735   25.5767 H   0  0  0  0  0  0  0  0  0  0  0  0
   -8.0767    5.3792   25.3987 H   0  0  0  0  0  0  0  0  0  0  0  0
   -6.3145    5.9193   23.9436 H   0  0  0  0  0  0  0  0  0  0  0  0
  1  2  2  0  0  0  0
  2  3  1  0  0  0  0
  2 14  1  0  0  0  0
  3  4  1  0  0  0  0
  3 30  1  0  0  0  0
  4 13  2  0  0  0  0
  4  5  1  0  0  0  0
  5  6  1  0  0  0  0
  5  8  2  0  0  0  0
  6  7  1  0  0  0  0
  7 32  1  0  0  0  0
  7 33  1  0  0  0  0
  7 31  1  0  0  0  0
  8  9  1  0  0  0  0
  8 34  1  0  0  0  0
  9 10  2  0  0  0  0
  9 35  1  0  0  0  0
 10 13  1  0  0  0  0
 10 11  1  0  0  0  0
 11 12  1  0  0  0  0
 12 38  1  0  0  0  0
 12 36  1  0  0  0  0
 12 37  1  0  0  0  0
 13 39  1  0  0  0  0
 14 15  1  0  0  0  0
 14 29  2  0  0  0  0
 15 16  2  0  0  0  0
 15 17  1  0  0  0  0
 17 18  1  0  0  0  0
 17 26  1  0  0  0  0
 18 19  2  0  0  0  0
 18 25  1  0  0  0  0
 19 40  1  0  0  0  0
 19 20  1  0  0  0  0
 20 23  2  0  0  0  0
 20 21  1  0  0  0  0
 21 22  1  0  0  0  0
 22 41  1  0  0  0  0
 22 42  1  0  0  0  0
 22 43  1  0  0  0  0
 23 24  1  0  0  0  0
 23 44  1  0  0  0  0
 24 25  2  0  0  0  0
 24 45  1  0  0  0  0
 25 46  1  0  0  0  0
 26 27  2  0  0  0  0
 26 28  1  0  0  0  0
 28 29  1  0  0  0  0
 28 47  1  0  0  0  0
 29 48  1  0  0  0  0
M  END
$$$$
