*****_entry_00001_conf_01
 OpenBabel06232217283D

 58 62  0  0  1  0  0  0  0  0999 V2000
  -11.6071   -3.9022   27.8952 Cl  0  0  0  0  0  0  0  0  0  0  0  0
  -11.3339   -2.2460   27.5186 C   0  0  0  0  0  0  0  0  0  0  0  0
  -11.2236   -1.8475   26.1895 C   0  0  0  0  0  0  0  0  0  0  0  0
  -11.0006   -0.5027   25.8833 C   0  0  0  0  0  0  0  0  0  0  0  0
  -10.8801    0.4548   26.9040 C   0  0  0  0  0  0  0  0  0  0  0  0
  -10.6342    1.9225   26.5971 C   0  0  2  0  0  0  0  0  0  0  0  0
  -10.8282    2.7996   27.8207 C   0  0  0  0  0  0  0  0  0  0  0  0
  -10.4556    4.2143   27.4629 C   0  0  0  0  0  0  0  0  0  0  0  0
   -9.8096    4.8943   28.2572 O   0  0  0  0  0  0  0  0  0  0  0  0
  -10.9456    4.7772   26.1555 C   0  0  0  0  0  0  0  0  0  0  0  0
  -10.7953    6.2707   26.0533 C   0  0  1  0  0  0  0  0  0  0  0  0
   -9.4862    6.7731   25.4365 C   0  0  0  0  0  0  0  0  0  0  0  0
   -9.1505    8.1453   25.4701 C   0  0  0  0  0  0  0  0  0  0  0  0
  -10.0788    8.9817   26.0326 O   0  0  0  0  0  0  0  0  0  0  0  0
   -9.7098   10.3390   26.2613 C   0  0  0  0  0  0  0  0  0  0  0  0
  -10.8861   11.0283   26.9288 C   0  0  0  0  0  0  0  0  0  0  0  0
   -7.9268    8.5818   24.9452 C   0  0  0  0  0  0  0  0  0  0  0  0
   -7.0516    7.6800   24.3397 C   0  0  0  0  0  0  0  0  0  0  0  0
   -7.3899    6.3359   24.2570 C   0  0  0  0  0  0  0  0  0  0  0  0
   -8.5916    5.8869   24.8051 C   0  0  0  0  0  0  0  0  0  0  0  0
  -11.9691    6.9545   25.4982 N   0  3  0  0  0  0  0  0  0  0  0  0
  -12.4339    6.7611   24.1974 C   0  0  0  0  0  0  0  0  0  0  0  0
  -12.4716    5.5323   23.5152 C   0  0  0  0  0  0  0  0  0  0  0  0
  -11.9898    4.2978   24.0029 N   0  0  0  0  0  0  0  0  0  0  0  0
  -11.4804    3.9440   25.2377 C   0  0  0  0  0  0  0  0  0  0  0  0
  -11.5264    2.4327   25.4607 C   0  0  0  0  0  0  0  0  0  0  0  0
  -12.9964    5.5053   22.1995 C   0  0  0  0  0  0  0  0  0  0  0  0
  -13.5521    6.6327   21.5978 C   0  0  0  0  0  0  0  0  0  0  0  0
  -13.5924    7.8226   22.3011 C   0  0  0  0  0  0  0  0  0  0  0  0
  -13.0476    7.8779   23.5839 C   0  0  0  0  0  0  0  0  0  0  0  0
  -10.9986    0.0337   28.2379 C   0  0  0  0  0  0  0  0  0  0  0  0
  -11.2246   -1.3109   28.5439 C   0  0  0  0  0  0  0  0  0  0  0  0
  -11.3116   -2.5755   25.3874 H   0  0  0  0  0  0  0  0  0  0  0  0
  -10.9233   -0.2143   24.8369 H   0  0  0  0  0  0  0  0  0  0  0  0
   -9.5908    2.0345   26.2658 H   0  0  0  0  0  0  0  0  0  0  0  0
  -10.1778    2.4620   28.6367 H   0  0  0  0  0  0  0  0  0  0  0  0
  -11.8596    2.7964   28.1918 H   0  0  0  0  0  0  0  0  0  0  0  0
  -10.8186    6.6267   27.0893 H   0  0  0  0  0  0  0  0  0  0  0  0
   -9.4960   10.8463   25.3136 H   0  0  0  0  0  0  0  0  0  0  0  0
   -8.8366   10.3868   26.9217 H   0  0  0  0  0  0  0  0  0  0  0  0
  -11.7831   10.9461   26.3054 H   0  0  0  0  0  0  0  0  0  0  0  0
  -10.6721   12.0863   27.1026 H   0  0  0  0  0  0  0  0  0  0  0  0
  -11.1203   10.5518   27.8865 H   0  0  0  0  0  0  0  0  0  0  0  0
   -7.6236    9.6222   24.9946 H   0  0  0  0  0  0  0  0  0  0  0  0
   -6.1091    8.0306   23.9276 H   0  0  0  0  0  0  0  0  0  0  0  0
   -6.7201    5.6323   23.7695 H   0  0  0  0  0  0  0  0  0  0  0  0
   -8.8266    4.8294   24.7261 H   0  0  0  0  0  0  0  0  0  0  0  0
  -11.8709    7.9452   25.7043 H   0  0  0  0  0  0  0  0  0  0  0  0
  -12.3498    3.5150   23.4641 H   0  0  0  0  0  0  0  0  0  0  0  0
  -11.2219    1.9179   24.5382 H   0  0  0  0  0  0  0  0  0  0  0  0
  -12.5764    2.1613   25.6318 H   0  0  0  0  0  0  0  0  0  0  0  0
  -12.9921    4.5774   21.6318 H   0  0  0  0  0  0  0  0  0  0  0  0
  -13.9632    6.5722   20.5944 H   0  0  0  0  0  0  0  0  0  0  0  0
  -14.0428    8.7079   21.8615 H   0  0  0  0  0  0  0  0  0  0  0  0
  -13.0967    8.8260   24.1159 H   0  0  0  0  0  0  0  0  0  0  0  0
  -10.9194    0.7500   29.0538 H   0  0  0  0  0  0  0  0  0  0  0  0
  -11.3153   -1.6195   29.5820 H   0  0  0  0  0  0  0  0  0  0  0  0
  -12.7730    6.5646   26.1049 H   0  0  0  0  0  0  0  0  0  0  0  0
  1  2  1  0  0  0  0
  2 32  2  0  0  0  0
  2  3  1  0  0  0  0
  3 33  1  0  0  0  0
  3  4  2  0  0  0  0
  4 34  1  0  0  0  0
  4  5  1  0  0  0  0
  5  6  1  0  0  0  0
  5 31  2  0  0  0  0
  6  7  1  0  0  0  0
  6 26  1  0  0  0  0
  6 35  1  6  0  0  0
  7 36  1  0  0  0  0
  7 37  1  0  0  0  0
  7  8  1  0  0  0  0
  8  9  2  0  0  0  0
  8 10  1  0  0  0  0
 10 11  1  0  0  0  0
 10 25  2  0  0  0  0
 11 12  1  0  0  0  0
 11 21  1  0  0  0  0
 11 38  1  1  0  0  0
 12 13  2  0  0  0  0
 12 20  1  0  0  0  0
 13 14  1  0  0  0  0
 13 17  1  0  0  0  0
 14 15  1  0  0  0  0
 15 16  1  0  0  0  0
 15 39  1  0  0  0  0
 15 40  1  0  0  0  0
 16 42  1  0  0  0  0
 16 43  1  0  0  0  0
 16 41  1  0  0  0  0
 17 18  2  0  0  0  0
 17 44  1  0  0  0  0
 18 45  1  0  0  0  0
 18 19  1  0  0  0  0
 19 20  2  0  0  0  0
 19 46  1  0  0  0  0
 20 47  1  0  0  0  0
 21 22  1  0  0  0  0
 21 48  1  0  0  0  0
 21 58  1  0  0  0  0
 22 23  2  0  0  0  0
 22 30  1  0  0  0  0
 23 24  1  0  0  0  0
 23 27  1  0  0  0  0
 24 25  1  0  0  0  0
 24 49  1  0  0  0  0
 25 26  1  0  0  0  0
 26 50  1  0  0  0  0
 26 51  1  0  0  0  0
 27 28  2  0  0  0  0
 27 52  1  0  0  0  0
 28 29  1  0  0  0  0
 28 53  1  0  0  0  0
 29 54  1  0  0  0  0
 29 30  2  0  0  0  0
 30 55  1  0  0  0  0
 31 32  1  0  0  0  0
 31 56  1  0  0  0  0
 32 57  1  0  0  0  0
M  CHG  1  21   1
M  END
$$$$
