*****_entry_00001_conf_01
 OpenBabel06232217283D

 62 66  0  0  0  0  0  0  0  0999 V2000
    0.1711    7.7250   16.6937 O   0  0  0  0  0  0  0  0  0  0  0  0
    0.0978    6.5826   15.8283 C   0  0  0  0  0  0  0  0  0  0  0  0
   -1.2688    6.6229   15.1484 C   0  0  0  0  0  0  0  0  0  0  0  0
    1.2024    6.6509   14.7768 C   0  0  0  0  0  0  0  0  0  0  0  0
   -0.7437    7.8082   17.7072 C   0  0  0  0  0  0  0  0  0  0  0  0
   -1.3252    6.7211   18.3540 C   0  0  0  0  0  0  0  0  0  0  0  0
   -2.2508    6.9274   19.3801 C   0  0  0  0  0  0  0  0  0  0  0  0
   -2.6034    8.2231   19.7865 C   0  0  0  0  0  0  0  0  0  0  0  0
   -3.5913    8.4066   20.8414 C   0  0  0  0  0  0  0  0  0  0  0  0
   -4.0650    7.3798   21.6354 N   0  0  0  0  0  0  0  0  0  0  0  0
   -4.9620    7.9898   22.3812 C   0  0  0  0  0  0  0  0  0  0  0  0
   -5.9005    7.4732   23.3726 C   0  0  0  0  0  0  0  0  0  0  0  0
   -5.7801    6.1611   23.8651 C   0  0  0  0  0  0  0  0  0  0  0  0
   -6.6347    5.6968   24.8649 C   0  0  0  0  0  0  0  0  0  0  0  0
   -6.4788    4.4069   25.3593 N   0  0  0  0  0  0  0  0  0  0  0  0
   -7.1995    3.9010   26.4014 C   0  0  0  0  0  0  0  0  0  0  0  0
   -6.9728    2.7507   26.7757 O   0  0  0  0  0  0  0  0  0  0  0  0
   -8.1449    4.7379   26.9732 N   0  0  0  0  0  0  0  0  0  0  0  0
   -8.8542    4.2504   28.1500 C   0  0  0  0  0  0  0  0  0  0  0  0
   -9.8703    3.1335   27.8521 C   0  0  0  0  0  0  0  0  0  0  0  0
   -9.2897    1.7120   27.8343 C   0  0  0  0  0  0  0  0  0  0  0  0
  -10.2645    0.6056   27.5062 C   0  0  0  0  0  0  0  0  0  0  0  0
  -11.1704    0.1594   28.4791 C   0  0  0  0  0  0  0  0  0  0  0  0
  -12.0609   -0.8793   28.2012 C   0  0  0  0  0  0  0  0  0  0  0  0
  -12.0654   -1.4764   26.9432 C   0  0  0  0  0  0  0  0  0  0  0  0
  -11.1903   -1.0239   25.9583 C   0  0  0  0  0  0  0  0  0  0  0  0
  -10.3009    0.0172   26.2345 C   0  0  0  0  0  0  0  0  0  0  0  0
   -8.4700    6.0007   26.4753 C   0  0  0  0  0  0  0  0  0  0  0  0
   -9.3924    6.6970   26.8953 O   0  0  0  0  0  0  0  0  0  0  0  0
   -7.6271    6.5183   25.3777 C   0  0  0  0  0  0  0  0  0  0  0  0
   -7.7828    7.8167   24.8817 C   0  0  0  0  0  0  0  0  0  0  0  0
   -6.9197    8.2910   23.8851 C   0  0  0  0  0  0  0  0  0  0  0  0
   -5.0455    9.3280   22.1235 O   0  0  0  0  0  0  0  0  0  0  0  0
   -4.1464    9.6005   21.1073 N   0  0  0  0  0  0  0  0  0  0  0  0
   -1.9939    9.3129   19.1568 C   0  0  0  0  0  0  0  0  0  0  0  0
   -1.0687    9.1024   18.1246 C   0  0  0  0  0  0  0  0  0  0  0  0
    0.1528    5.6421   16.3904 H   0  0  0  0  0  0  0  0  0  0  0  0
   -1.3927    7.5431   14.5666 H   0  0  0  0  0  0  0  0  0  0  0  0
   -2.0681    6.6129   15.8971 H   0  0  0  0  0  0  0  0  0  0  0  0
   -1.4045    5.7657   14.4816 H   0  0  0  0  0  0  0  0  0  0  0  0
    1.1152    7.5619   14.1750 H   0  0  0  0  0  0  0  0  0  0  0  0
    1.1604    5.7853   14.1080 H   0  0  0  0  0  0  0  0  0  0  0  0
    2.1943    6.6797   15.2374 H   0  0  0  0  0  0  0  0  0  0  0  0
   -1.0767    5.6981   18.0951 H   0  0  0  0  0  0  0  0  0  0  0  0
   -2.6907    6.0584   19.8667 H   0  0  0  0  0  0  0  0  0  0  0  0
   -5.0002    5.5033   23.4874 H   0  0  0  0  0  0  0  0  0  0  0  0
   -5.7659    3.7902   24.9921 H   0  0  0  0  0  0  0  0  0  0  0  0
   -9.3958    5.1009   28.5833 H   0  0  0  0  0  0  0  0  0  0  0  0
   -8.1495    3.9052   28.9140 H   0  0  0  0  0  0  0  0  0  0  0  0
  -10.4068    3.3387   26.9196 H   0  0  0  0  0  0  0  0  0  0  0  0
  -10.6277    3.1670   28.6463 H   0  0  0  0  0  0  0  0  0  0  0  0
   -8.8729    1.4921   28.8260 H   0  0  0  0  0  0  0  0  0  0  0  0
   -8.4411    1.6871   27.1392 H   0  0  0  0  0  0  0  0  0  0  0  0
  -11.1701    0.6018   29.4739 H   0  0  0  0  0  0  0  0  0  0  0  0
  -12.7440   -1.2260   28.9721 H   0  0  0  0  0  0  0  0  0  0  0  0
  -12.7547   -2.2887   26.7297 H   0  0  0  0  0  0  0  0  0  0  0  0
  -11.2003   -1.4798   24.9717 H   0  0  0  0  0  0  0  0  0  0  0  0
   -9.6298    0.3576   25.4489 H   0  0  0  0  0  0  0  0  0  0  0  0
   -8.5560    8.4675   25.2855 H   0  0  0  0  0  0  0  0  0  0  0  0
   -7.0361    9.3128   23.5245 H   0  0  0  0  0  0  0  0  0  0  0  0
   -2.2420   10.3305   19.4510 H   0  0  0  0  0  0  0  0  0  0  0  0
   -0.6082    9.9564   17.6326 H   0  0  0  0  0  0  0  0  0  0  0  0
  1  5  1  0  0  0  0
  1  2  1  0  0  0  0
  2  3  1  0  0  0  0
  2  4  1  0  0  0  0
  2 37  1  0  0  0  0
  3 38  1  0  0  0  0
  3 39  1  0  0  0  0
  3 40  1  0  0  0  0
  4 41  1  0  0  0  0
  4 42  1  0  0  0  0
  4 43  1  0  0  0  0
  5  6  2  0  0  0  0
  5 36  1  0  0  0  0
  6  7  1  0  0  0  0
  6 44  1  0  0  0  0
  7  8  2  0  0  0  0
  7 45  1  0  0  0  0
  8  9  1  0  0  0  0
  8 35  1  0  0  0  0
  9 34  2  0  0  0  0
  9 10  1  0  0  0  0
 10 11  2  0  0  0  0
 11 33  1  0  0  0  0
 11 12  1  0  0  0  0
 12 32  2  0  0  0  0
 12 13  1  0  0  0  0
 13 46  1  0  0  0  0
 13 14  2  0  0  0  0
 14 15  1  0  0  0  0
 14 30  1  0  0  0  0
 15 47  1  0  0  0  0
 15 16  1  0  0  0  0
 16 17  2  0  0  0  0
 16 18  1  0  0  0  0
 18 28  1  0  0  0  0
 18 19  1  0  0  0  0
 19 48  1  0  0  0  0
 19 49  1  0  0  0  0
 19 20  1  0  0  0  0
 20 50  1  0  0  0  0
 20 51  1  0  0  0  0
 20 21  1  0  0  0  0
 21 52  1  0  0  0  0
 21 22  1  0  0  0  0
 21 53  1  0  0  0  0
 22 23  2  0  0  0  0
 22 27  1  0  0  0  0
 23 24  1  0  0  0  0
 23 54  1  0  0  0  0
 24 25  2  0  0  0  0
 24 55  1  0  0  0  0
 25 26  1  0  0  0  0
 25 56  1  0  0  0  0
 26 27  2  0  0  0  0
 26 57  1  0  0  0  0
 27 58  1  0  0  0  0
 28 29  2  0  0  0  0
 28 30  1  0  0  0  0
 30 31  2  0  0  0  0
 31 32  1  0  0  0  0
 31 59  1  0  0  0  0
 32 60  1  0  0  0  0
 33 34  1  0  0  0  0
 35 36  2  0  0  0  0
 35 61  1  0  0  0  0
 36 62  1  0  0  0  0
M  END
$$$$
