*****_entry_00001_conf_01
 OpenBabel06232217283D

 66 69  0  0  1  0  0  0  0  0999 V2000
   -9.4976    9.7148   25.8128 O   0  0  0  0  0  0  0  0  0  0  0  0
   -8.7092    8.9169   24.9163 C   0  0  0  0  0  0  0  0  0  0  0  0
   -9.5728    7.7108   24.5105 C   0  0  1  0  0  0  0  0  0  0  0  0
  -10.8231    8.1912   23.9927 O   0  0  0  0  0  0  0  0  0  0  0  0
   -8.8481    6.8585   23.4398 C   0  0  0  0  0  0  0  0  0  0  0  0
   -7.5524    6.2540   23.8414 N   0  3  1  0  0  0  0  0  0  0  0  0
   -6.3993    7.1781   23.6575 C   0  0  0  0  0  0  0  0  0  0  0  0
   -5.0540    6.4358   23.6940 C   0  0  0  0  0  0  0  0  0  0  0  0
   -6.4659    8.0784   22.4185 C   0  0  0  0  0  0  0  0  0  0  0  0
   -7.6357    5.6739   25.2042 C   0  0  0  0  0  0  0  0  0  0  0  0
   -8.6761    4.5653   25.2591 C   0  0  0  0  0  0  0  0  0  0  0  0
   -9.9068    4.7982   24.9220 N   0  0  0  0  0  0  0  0  0  0  0  0
  -10.7552    3.7615   25.1453 C   0  0  0  0  0  0  0  0  0  0  0  0
  -12.4169    3.9217   24.8135 S   0  0  0  0  0  0  0  0  0  0  0  0
  -12.7526    2.3870   25.4793 C   0  0  0  0  0  0  0  0  0  0  0  0
  -11.6197    1.7239   25.9245 C   0  0  0  0  0  0  0  0  0  0  0  0
  -11.7530    0.4342   26.6090 C   0  0  0  0  0  0  0  0  0  0  0  0
  -10.8314    0.0391   27.5901 C   0  0  0  0  0  0  0  0  0  0  0  0
  -10.9235   -1.2192   28.1959 C   0  0  0  0  0  0  0  0  0  0  0  0
  -11.9422   -2.1063   27.8367 C   0  0  0  0  0  0  0  0  0  0  0  0
  -12.0739   -3.4423   28.5044 C   0  0  0  0  0  0  0  0  0  0  0  0
  -12.8734   -1.7102   26.8726 C   0  0  0  0  0  0  0  0  0  0  0  0
  -12.7689   -0.4603   26.2541 C   0  0  0  0  0  0  0  0  0  0  0  0
  -10.4437    2.5247   25.6827 C   0  0  0  0  0  0  0  0  0  0  0  0
   -9.0367    2.2689   25.9534 C   0  0  0  0  0  0  0  0  0  0  0  0
   -8.5793    1.2087   26.3668 O   0  0  0  0  0  0  0  0  0  0  0  0
   -8.2194    3.3508   25.7203 N   0  0  0  0  0  0  0  0  0  0  0  0
   -8.8807   10.8192   26.3382 C   0  0  0  0  0  0  0  0  0  0  0  0
   -9.6843   11.7121   27.0666 C   0  0  0  0  0  0  0  0  0  0  0  0
  -11.1428   11.4354   27.3008 C   0  0  0  0  0  0  0  0  0  0  0  0
   -9.1246   12.9104   27.5370 C   0  0  0  0  0  0  0  0  0  0  0  0
   -7.7850   13.2121   27.2953 C   0  0  0  0  0  0  0  0  0  0  0  0
   -6.9961   12.3276   26.5666 C   0  0  0  0  0  0  0  0  0  0  0  0
   -7.5450   11.1407   26.0778 C   0  0  0  0  0  0  0  0  0  0  0  0
   -7.8041    8.5853   25.4383 H   0  0  0  0  0  0  0  0  0  0  0  0
   -8.4227    9.4625   24.0135 H   0  0  0  0  0  0  0  0  0  0  0  0
   -9.7991    7.1195   25.4041 H   0  0  0  0  0  0  0  0  0  0  0  0
  -11.0757    8.9428   24.5635 H   0  0  0  0  0  0  0  0  0  0  0  0
   -8.7192    7.4724   22.5405 H   0  0  0  0  0  0  0  0  0  0  0  0
   -9.5362    6.0450   23.1859 H   0  0  0  0  0  0  0  0  0  0  0  0
   -6.3552    7.8418   24.5290 H   0  0  0  0  0  0  0  0  0  0  0  0
   -4.8644    5.8712   22.7756 H   0  0  0  0  0  0  0  0  0  0  0  0
   -5.0072    5.7465   24.5443 H   0  0  0  0  0  0  0  0  0  0  0  0
   -4.2314    7.1509   23.8097 H   0  0  0  0  0  0  0  0  0  0  0  0
   -6.4170    7.5030   21.4893 H   0  0  0  0  0  0  0  0  0  0  0  0
   -5.6215    8.7774   22.4160 H   0  0  0  0  0  0  0  0  0  0  0  0
   -7.3779    8.6823   22.4036 H   0  0  0  0  0  0  0  0  0  0  0  0
   -7.9753    6.4311   25.9195 H   0  0  0  0  0  0  0  0  0  0  0  0
   -6.6670    5.2927   25.5453 H   0  0  0  0  0  0  0  0  0  0  0  0
  -13.7823    2.0602   25.5335 H   0  0  0  0  0  0  0  0  0  0  0  0
  -10.0275    0.7038   27.8973 H   0  0  0  0  0  0  0  0  0  0  0  0
  -10.1912   -1.4992   28.9498 H   0  0  0  0  0  0  0  0  0  0  0  0
  -11.1391   -3.7370   28.9921 H   0  0  0  0  0  0  0  0  0  0  0  0
  -12.3162   -4.2164   27.7685 H   0  0  0  0  0  0  0  0  0  0  0  0
  -12.8649   -3.4068   29.2599 H   0  0  0  0  0  0  0  0  0  0  0  0
  -13.6892   -2.3723   26.5907 H   0  0  0  0  0  0  0  0  0  0  0  0
  -13.4977   -0.2029   25.4900 H   0  0  0  0  0  0  0  0  0  0  0  0
   -7.2501    3.2628   25.9984 H   0  0  0  0  0  0  0  0  0  0  0  0
  -11.7138   11.6410   26.3901 H   0  0  0  0  0  0  0  0  0  0  0  0
  -11.5408   12.0624   28.1060 H   0  0  0  0  0  0  0  0  0  0  0  0
  -11.2995   10.3938   27.5998 H   0  0  0  0  0  0  0  0  0  0  0  0
   -9.7354   13.6234   28.0868 H   0  0  0  0  0  0  0  0  0  0  0  0
   -7.3631   14.1457   27.6584 H   0  0  0  0  0  0  0  0  0  0  0  0
   -5.9582   12.5721   26.3556 H   0  0  0  0  0  0  0  0  0  0  0  0
   -6.9169   10.5082   25.4594 H   0  0  0  0  0  0  0  0  0  0  0  0
   -7.3845    5.4252   23.1696 H   0  0  0  0  0  0  0  0  0  0  0  0
  1  2  1  0  0  0  0
  1 28  1  0  0  0  0
  2  3  1  0  0  0  0
  2 35  1  0  0  0  0
  2 36  1  0  0  0  0
  3  5  1  0  0  0  0
  3 37  1  1  0  0  0
  3  4  1  0  0  0  0
  4 38  1  0  0  0  0
  5 39  1  0  0  0  0
  5 40  1  0  0  0  0
  5  6  1  0  0  0  0
  6 10  1  0  0  0  0
  6  7  1  0  0  0  0
  6 66  1  6  0  0  0
  7  8  1  0  0  0  0
  7  9  1  0  0  0  0
  7 41  1  0  0  0  0
  8 42  1  0  0  0  0
  8 43  1  0  0  0  0
  8 44  1  0  0  0  0
  9 47  1  0  0  0  0
  9 45  1  0  0  0  0
  9 46  1  0  0  0  0
 10 11  1  0  0  0  0
 10 48  1  0  0  0  0
 10 49  1  0  0  0  0
 11 12  2  0  0  0  0
 11 27  1  0  0  0  0
 12 13  1  0  0  0  0
 13 14  1  0  0  0  0
 13 24  2  0  0  0  0
 14 15  1  0  0  0  0
 15 16  2  0  0  0  0
 15 50  1  0  0  0  0
 16 17  1  0  0  0  0
 16 24  1  0  0  0  0
 17 18  2  0  0  0  0
 17 23  1  0  0  0  0
 18 19  1  0  0  0  0
 18 51  1  0  0  0  0
 19 52  1  0  0  0  0
 19 20  2  0  0  0  0
 20 21  1  0  0  0  0
 20 22  1  0  0  0  0
 21 53  1  0  0  0  0
 21 54  1  0  0  0  0
 21 55  1  0  0  0  0
 22 56  1  0  0  0  0
 22 23  2  0  0  0  0
 23 57  1  0  0  0  0
 24 25  1  0  0  0  0
 25 27  1  0  0  0  0
 25 26  2  0  0  0  0
 27 58  1  0  0  0  0
 28 29  2  0  0  0  0
 28 34  1  0  0  0  0
 29 30  1  0  0  0  0
 29 31  1  0  0  0  0
 30 60  1  0  0  0  0
 30 61  1  0  0  0  0
 30 59  1  0  0  0  0
 31 32  2  0  0  0  0
 31 62  1  0  0  0  0
 32 33  1  0  0  0  0
 32 63  1  0  0  0  0
 33 34  2  0  0  0  0
 33 64  1  0  0  0  0
 34 65  1  0  0  0  0
M  CHG  1   6   1
M  END
$$$$
