*****_entry_00001_conf_01
 OpenBabel06232217283D

 54 57  0  0  1  0  0  0  0  0999 V2000
   -7.0209   11.5863   24.5541 O   0  0  0  0  0  0  0  0  0  0  0  0
   -7.4303   11.5177   25.7053 C   0  0  0  0  0  0  0  0  0  0  0  0
   -8.3542   10.5882   26.1307 N   0  0  0  0  0  0  0  0  0  0  0  0
   -8.8697    9.5737   25.2111 C   0  0  2  0  0  0  0  0  0  0  0  0
   -9.5006   10.0903   24.4761 H   0  0  0  0  0  0  0  0  0  0  0  0
   -9.6507    8.4680   25.9466 C   0  0  1  0  0  0  0  0  0  0  0  0
   -9.8946    8.7591   26.9757 H   0  0  0  0  0  0  0  0  0  0  0  0
  -10.9298    8.1258   25.2487 C   0  0  0  0  0  0  0  0  0  0  0  0
  -12.1091    7.9036   25.9022 N   0  0  0  0  0  0  0  0  0  0  0  0
  -12.2909    7.9434   26.9012 H   0  0  0  0  0  0  0  0  0  0  0  0
  -13.1006    7.6259   25.0455 N   0  0  0  0  0  0  0  0  0  0  0  0
  -12.4747    7.6851   23.8578 C   0  0  0  0  0  0  0  0  0  0  0  0
  -13.1283    7.4511   22.5729 C   0  0  0  0  0  0  0  0  0  0  0  0
  -12.3938    7.4503   21.3777 C   0  0  0  0  0  0  0  0  0  0  0  0
  -13.0267    7.2244   20.1522 C   0  0  0  0  0  0  0  0  0  0  0  0
  -14.4008    6.9962   20.1084 C   0  0  0  0  0  0  0  0  0  0  0  0
  -15.1436    6.9947   21.2875 C   0  0  0  0  0  0  0  0  0  0  0  0
  -14.5109    7.2218   22.5127 C   0  0  0  0  0  0  0  0  0  0  0  0
  -11.1337    8.0023   23.9558 N   0  0  0  0  0  0  0  0  0  0  0  0
   -8.6772    7.2884   25.9533 C   0  0  0  0  0  0  0  0  0  0  0  0
   -8.0299    7.3898   24.6369 N   0  3  2  0  0  0  0  0  0  0  0  0
   -6.8147    6.5549   24.5684 C   0  0  0  0  0  0  0  0  0  0  0  0
   -6.0977    6.6474   23.2346 C   0  0  0  0  0  0  0  0  0  0  0  0
   -6.5759    5.8821   22.2202 N   0  0  0  0  0  0  0  0  0  0  0  0
   -5.9074    5.9241   21.0476 C   0  0  0  0  0  0  0  0  0  0  0  0
   -6.3322    5.1556   19.9820 O   0  0  0  0  0  0  0  0  0  0  0  0
   -7.3254    4.2027   20.3439 C   0  0  0  0  0  0  0  0  0  0  0  0
   -4.7794    6.6979   20.8311 C   0  0  0  0  0  0  0  0  0  0  0  0
   -4.3069    7.4827   21.8761 C   0  0  0  0  0  0  0  0  0  0  0  0
   -4.9692    7.4551   23.0991 C   0  0  0  0  0  0  0  0  0  0  0  0
   -7.7238    8.8290   24.4841 C   0  0  0  0  0  0  0  0  0  0  0  0
   -6.9288   12.4214   26.7990 C   0  0  0  0  0  0  0  0  0  0  0  0
   -8.4822   10.4627   27.1267 H   0  0  0  0  0  0  0  0  0  0  0  0
  -11.3204    7.6284   21.3961 H   0  0  0  0  0  0  0  0  0  0  0  0
  -12.4450    7.2282   19.2342 H   0  0  0  0  0  0  0  0  0  0  0  0
  -14.8928    6.8206   19.1553 H   0  0  0  0  0  0  0  0  0  0  0  0
  -16.2156    6.8182   21.2562 H   0  0  0  0  0  0  0  0  0  0  0  0
  -15.1035    7.2193   23.4255 H   0  0  0  0  0  0  0  0  0  0  0  0
   -9.1779    6.3226   26.0835 H   0  0  0  0  0  0  0  0  0  0  0  0
   -7.9477    7.4158   26.7643 H   0  0  0  0  0  0  0  0  0  0  0  0
   -7.0867    5.5035   24.7295 H   0  0  0  0  0  0  0  0  0  0  0  0
   -6.1111    6.8150   25.3708 H   0  0  0  0  0  0  0  0  0  0  0  0
   -7.5901    3.6394   19.4438 H   0  0  0  0  0  0  0  0  0  0  0  0
   -8.2325    4.7010   20.7037 H   0  0  0  0  0  0  0  0  0  0  0  0
   -6.9493    3.4874   21.0836 H   0  0  0  0  0  0  0  0  0  0  0  0
   -4.2817    6.6870   19.8683 H   0  0  0  0  0  0  0  0  0  0  0  0
   -3.4260    8.1033   21.7404 H   0  0  0  0  0  0  0  0  0  0  0  0
   -4.6070    8.0482   23.9328 H   0  0  0  0  0  0  0  0  0  0  0  0
   -7.6985    9.1038   23.4239 H   0  0  0  0  0  0  0  0  0  0  0  0
   -6.7549    9.0884   24.9301 H   0  0  0  0  0  0  0  0  0  0  0  0
   -6.6940   13.4028   26.3779 H   0  0  0  0  0  0  0  0  0  0  0  0
   -6.0286   11.9855   27.2400 H   0  0  0  0  0  0  0  0  0  0  0  0
   -7.6860   12.5562   27.5767 H   0  0  0  0  0  0  0  0  0  0  0  0
   -8.7228    7.0843   23.8669 H   0  0  0  0  0  0  0  0  0  0  0  0
  1  2  2  0  0  0  0
  2  3  1  0  0  0  0
  2 32  1  0  0  0  0
  3 33  1  0  0  0  0
  3  4  1  0  0  0  0
  4  5  1  0  0  0  0
  4  6  1  1  0  0  0
  4 31  1  0  0  0  0
  6  7  1  1  0  0  0
  6  8  1  0  0  0  0
  6 20  1  0  0  0  0
  8  9  1  0  0  0  0
  8 19  2  0  0  0  0
  9 10  1  0  0  0  0
  9 11  1  0  0  0  0
 11 12  2  0  0  0  0
 12 19  1  0  0  0  0
 12 13  1  0  0  0  0
 13 14  2  0  0  0  0
 13 18  1  0  0  0  0
 14 34  1  0  0  0  0
 14 15  1  0  0  0  0
 15 16  2  0  0  0  0
 15 35  1  0  0  0  0
 16 17  1  0  0  0  0
 16 36  1  0  0  0  0
 17 18  2  0  0  0  0
 17 37  1  0  0  0  0
 18 38  1  0  0  0  0
 20 21  1  0  0  0  0
 20 39  1  0  0  0  0
 20 40  1  0  0  0  0
 21 22  1  0  0  0  0
 21 31  1  0  0  0  0
 21 54  1  6  0  0  0
 22 23  1  0  0  0  0
 22 41  1  0  0  0  0
 22 42  1  0  0  0  0
 23 30  2  0  0  0  0
 23 24  1  0  0  0  0
 24 25  2  0  0  0  0
 25 28  1  0  0  0  0
 25 26  1  0  0  0  0
 26 27  1  0  0  0  0
 27 43  1  0  0  0  0
 27 44  1  0  0  0  0
 27 45  1  0  0  0  0
 28 29  2  0  0  0  0
 28 46  1  0  0  0  0
 29 30  1  0  0  0  0
 29 47  1  0  0  0  0
 30 48  1  0  0  0  0
 31 49  1  0  0  0  0
 31 50  1  0  0  0  0
 32 51  1  0  0  0  0
 32 52  1  0  0  0  0
 32 53  1  0  0  0  0
M  CHG  1  21   1
M  END
$$$$
