*****_entry_00001_conf_01
 OpenBabel06232217283D

 42 44  0  0  0  0  0  0  0  0999 V2000
  -11.1708    8.2645   24.2027 S   0  0  0  0  0  0  0  0  0  0  0  0
  -12.2063    7.5197   25.4966 C   0  0  0  0  0  0  0  0  0  0  0  0
  -12.6213    6.1199   25.0821 C   0  0  0  0  0  0  0  0  0  0  0  0
  -13.7632    5.8975   24.6649 O   0  0  0  0  0  0  0  0  0  0  0  0
  -11.7560    5.0675   25.1484 N   0  0  0  0  0  0  0  0  0  0  0  0
  -10.4562    5.1067   25.5573 C   0  0  0  0  0  0  0  0  0  0  0  0
   -9.6450    3.6090   25.5164 S   0  0  0  0  0  0  0  0  0  0  0  0
   -8.2615    4.4378   26.1254 C   0  0  0  0  0  0  0  0  0  0  0  0
   -6.9831    3.7089   26.3956 C   0  0  0  0  0  0  0  0  0  0  0  0
   -7.1650    2.1834   26.4966 C   0  0  0  0  0  0  0  0  0  0  0  0
   -5.8168    1.5263   26.8066 C   0  0  0  0  0  0  0  0  0  0  0  0
   -8.1855    1.7818   27.5653 C   0  0  0  0  0  0  0  0  0  0  0  0
   -8.4593    5.7250   26.3319 N   0  0  0  0  0  0  0  0  0  0  0  0
   -9.7348    6.1140   25.9832 N   0  0  0  0  0  0  0  0  0  0  0  0
  -10.4674    9.5167   25.1695 C   0  0  0  0  0  0  0  0  0  0  0  0
   -9.2172    9.8083   25.0632 N   0  0  0  0  0  0  0  0  0  0  0  0
   -8.7334   10.8498   25.8719 C   0  0  0  0  0  0  0  0  0  0  0  0
   -9.5542   11.5570   26.7567 C   0  0  0  0  0  0  0  0  0  0  0  0
  -10.9735   11.1608   26.8345 C   0  0  0  0  0  0  0  0  0  0  0  0
  -11.7572   11.7226   27.5910 O   0  0  0  0  0  0  0  0  0  0  0  0
  -11.3436   10.1305   26.0111 N   0  0  0  0  0  0  0  0  0  0  0  0
   -9.0475   12.5949   27.5451 C   0  0  0  0  0  0  0  0  0  0  0  0
   -7.6973   12.9306   27.4494 C   0  0  0  0  0  0  0  0  0  0  0  0
   -6.8661   12.2315   26.5727 C   0  0  0  0  0  0  0  0  0  0  0  0
   -7.3837   11.1969   25.7880 C   0  0  0  0  0  0  0  0  0  0  0  0
  -13.0886    8.1190   25.7380 H   0  0  0  0  0  0  0  0  0  0  0  0
  -11.6145    7.4471   26.4156 H   0  0  0  0  0  0  0  0  0  0  0  0
  -12.1405    4.1700   24.8897 H   0  0  0  0  0  0  0  0  0  0  0  0
   -6.5060    4.0899   27.3075 H   0  0  0  0  0  0  0  0  0  0  0  0
   -6.2916    3.9344   25.5729 H   0  0  0  0  0  0  0  0  0  0  0  0
   -7.5163    1.7985   25.5304 H   0  0  0  0  0  0  0  0  0  0  0  0
   -5.4214    1.8690   27.7694 H   0  0  0  0  0  0  0  0  0  0  0  0
   -5.0791    1.7645   26.0333 H   0  0  0  0  0  0  0  0  0  0  0  0
   -5.9145    0.4364   26.8508 H   0  0  0  0  0  0  0  0  0  0  0  0
   -7.9224    2.1983   28.5435 H   0  0  0  0  0  0  0  0  0  0  0  0
   -8.2353    0.6920   27.6644 H   0  0  0  0  0  0  0  0  0  0  0  0
   -9.1909    2.1275   27.3050 H   0  0  0  0  0  0  0  0  0  0  0  0
  -12.3001    9.7981   26.0752 H   0  0  0  0  0  0  0  0  0  0  0  0
   -9.6991   13.1354   28.2276 H   0  0  0  0  0  0  0  0  0  0  0  0
   -7.2924   13.7361   28.0575 H   0  0  0  0  0  0  0  0  0  0  0  0
   -5.8129   12.4915   26.4968 H   0  0  0  0  0  0  0  0  0  0  0  0
   -6.7338   10.6564   25.1042 H   0  0  0  0  0  0  0  0  0  0  0  0
  1 15  1  0  0  0  0
  1  2  1  0  0  0  0
  2 26  1  0  0  0  0
  2 27  1  0  0  0  0
  2  3  1  0  0  0  0
  3  4  2  0  0  0  0
  3  5  1  0  0  0  0
  5  6  1  0  0  0  0
  5 28  1  0  0  0  0
  6 14  2  0  0  0  0
  6  7  1  0  0  0  0
  7  8  1  0  0  0  0
  8 13  2  0  0  0  0
  8  9  1  0  0  0  0
  9 29  1  0  0  0  0
  9 30  1  0  0  0  0
  9 10  1  0  0  0  0
 10 11  1  0  0  0  0
 10 12  1  0  0  0  0
 10 31  1  0  0  0  0
 11 32  1  0  0  0  0
 11 33  1  0  0  0  0
 11 34  1  0  0  0  0
 12 35  1  0  0  0  0
 12 36  1  0  0  0  0
 12 37  1  0  0  0  0
 13 14  1  0  0  0  0
 15 21  1  0  0  0  0
 15 16  2  0  0  0  0
 16 17  1  0  0  0  0
 17 18  2  0  0  0  0
 17 25  1  0  0  0  0
 18 19  1  0  0  0  0
 18 22  1  0  0  0  0
 19 20  2  0  0  0  0
 19 21  1  0  0  0  0
 21 38  1  0  0  0  0
 22 23  2  0  0  0  0
 22 39  1  0  0  0  0
 23 40  1  0  0  0  0
 23 24  1  0  0  0  0
 24 25  2  0  0  0  0
 24 41  1  0  0  0  0
 25 42  1  0  0  0  0
M  END
$$$$
