*****_entry_00001_conf_01
 OpenBabel06232217283D

 53 56  0  0  1  0  0  0  0  0999 V2000
   -8.4336    2.3505   27.2135 S   0  0  0  0  0  0  0  0  0  0  0  0
   -9.9726    1.7694   27.9803 C   0  0  0  0  0  0  0  0  0  0  0  0
  -10.4082    0.4452   27.4022 C   0  0  0  0  0  0  0  0  0  0  0  0
  -10.9284   -0.5561   28.2348 C   0  0  0  0  0  0  0  0  0  0  0  0
  -11.3344   -1.7713   27.6922 C   0  0  0  0  0  0  0  0  0  0  0  0
  -11.8235   -2.7217   28.4996 F   0  0  0  0  0  0  0  0  0  0  0  0
  -11.2413   -2.0146   26.3275 C   0  0  0  0  0  0  0  0  0  0  0  0
  -10.7348   -1.0246   25.4878 C   0  0  0  0  0  0  0  0  0  0  0  0
  -10.3212    0.1995   26.0216 C   0  0  0  0  0  0  0  0  0  0  0  0
   -9.0624    3.5482   26.1287 C   0  0  0  0  0  0  0  0  0  0  0  0
  -10.2676    4.0024   26.1941 N   0  0  0  0  0  0  0  0  0  0  0  0
  -10.6119    4.9306   25.2545 C   0  0  0  0  0  0  0  0  0  0  0  0
  -11.8745    5.4225   25.3645 N   0  0  0  0  0  0  0  0  0  0  0  0
  -12.4712    6.3046   24.5108 C   0  0  0  0  0  0  0  0  0  0  0  0
  -13.6074    6.7225   24.7244 O   0  0  0  0  0  0  0  0  0  0  0  0
  -11.7331    6.6376   23.2312 C   0  0  0  0  0  0  0  0  0  0  0  0
  -10.2195    6.4296   23.3041 C   0  0  1  0  0  0  0  0  0  0  0  0
   -9.5379    7.7599   23.6557 C   0  0  0  0  0  0  0  0  0  0  0  0
   -8.6726    8.2439   22.9322 O   0  0  0  0  0  0  0  0  0  0  0  0
   -9.9682    8.2647   24.8744 N   0  0  0  0  0  0  0  0  0  0  0  0
   -9.5180    9.4253   25.5386 C   0  0  0  0  0  0  0  0  0  0  0  0
  -10.1422    9.9874   26.6526 C   0  0  0  0  0  0  0  0  0  0  0  0
   -9.6472   11.1634   27.2520 C   0  0  0  0  0  0  0  0  0  0  0  0
  -10.3600   11.7243   28.4532 C   0  0  0  0  0  0  0  0  0  0  0  0
   -8.4929   11.7768   26.7295 C   0  0  0  0  0  0  0  0  0  0  0  0
   -7.9432   13.0575   27.2953 C   0  0  0  0  0  0  0  0  0  0  0  0
   -7.8730   11.2109   25.6082 C   0  0  0  0  0  0  0  0  0  0  0  0
   -8.3752   10.0453   25.0253 C   0  0  0  0  0  0  0  0  0  0  0  0
   -9.8105    5.3805   24.2839 C   0  0  0  0  0  0  0  0  0  0  0  0
   -8.4499    4.8228   24.2203 C   0  0  0  0  0  0  0  0  0  0  0  0
   -7.6687    5.1259   23.3261 O   0  0  0  0  0  0  0  0  0  0  0  0
   -8.1478    3.9276   25.1985 N   0  0  0  0  0  0  0  0  0  0  0  0
  -10.7684    2.5078   27.8297 H   0  0  0  0  0  0  0  0  0  0  0  0
   -9.8284    1.6660   29.0621 H   0  0  0  0  0  0  0  0  0  0  0  0
  -11.0229   -0.4035   29.3061 H   0  0  0  0  0  0  0  0  0  0  0  0
  -11.5658   -2.9701   25.9285 H   0  0  0  0  0  0  0  0  0  0  0  0
  -10.6637   -1.2034   24.4179 H   0  0  0  0  0  0  0  0  0  0  0  0
   -9.9334    0.9651   25.3520 H   0  0  0  0  0  0  0  0  0  0  0  0
  -12.4155    5.1327   26.1692 H   0  0  0  0  0  0  0  0  0  0  0  0
  -11.9832    7.6687   22.9556 H   0  0  0  0  0  0  0  0  0  0  0  0
  -12.1500    5.9798   22.4578 H   0  0  0  0  0  0  0  0  0  0  0  0
   -9.8768    6.1291   22.3045 H   0  0  0  0  0  0  0  0  0  0  0  0
  -10.6966    7.7522   25.3553 H   0  0  0  0  0  0  0  0  0  0  0  0
  -11.0272    9.5273   27.0819 H   0  0  0  0  0  0  0  0  0  0  0  0
  -11.2910   11.1854   28.6588 H   0  0  0  0  0  0  0  0  0  0  0  0
  -10.6215   12.7742   28.2873 H   0  0  0  0  0  0  0  0  0  0  0  0
   -9.7248   11.6410   29.3408 H   0  0  0  0  0  0  0  0  0  0  0  0
   -7.9932   13.0659   28.3880 H   0  0  0  0  0  0  0  0  0  0  0  0
   -8.5060   13.9097   26.9014 H   0  0  0  0  0  0  0  0  0  0  0  0
   -6.8887   13.1858   27.0274 H   0  0  0  0  0  0  0  0  0  0  0  0
   -6.9906   11.6783   25.1760 H   0  0  0  0  0  0  0  0  0  0  0  0
   -7.8610    9.6412   24.1576 H   0  0  0  0  0  0  0  0  0  0  0  0
   -7.2293    3.5113   25.2016 H   0  0  0  0  0  0  0  0  0  0  0  0
  1  2  1  0  0  0  0
  1 10  1  0  0  0  0
  2  3  1  0  0  0  0
  2 34  1  0  0  0  0
  2 33  1  0  0  0  0
  3  9  2  0  0  0  0
  3  4  1  0  0  0  0
  4 35  1  0  0  0  0
  4  5  2  0  0  0  0
  5  6  1  0  0  0  0
  5  7  1  0  0  0  0
  7  8  2  0  0  0  0
  7 36  1  0  0  0  0
  8  9  1  0  0  0  0
  8 37  1  0  0  0  0
  9 38  1  0  0  0  0
 10 11  2  0  0  0  0
 10 32  1  0  0  0  0
 11 12  1  0  0  0  0
 12 29  2  0  0  0  0
 12 13  1  0  0  0  0
 13 14  1  0  0  0  0
 13 39  1  0  0  0  0
 14 15  2  0  0  0  0
 14 16  1  0  0  0  0
 16 17  1  0  0  0  0
 16 40  1  0  0  0  0
 16 41  1  0  0  0  0
 17 18  1  0  0  0  0
 17 29  1  0  0  0  0
 17 42  1  6  0  0  0
 18 19  2  0  0  0  0
 18 20  1  0  0  0  0
 20 21  1  0  0  0  0
 20 43  1  0  0  0  0
 21 22  2  0  0  0  0
 21 28  1  0  0  0  0
 22 44  1  0  0  0  0
 22 23  1  0  0  0  0
 23 24  1  0  0  0  0
 23 25  2  0  0  0  0
 24 45  1  0  0  0  0
 24 46  1  0  0  0  0
 24 47  1  0  0  0  0
 25 27  1  0  0  0  0
 25 26  1  0  0  0  0
 26 48  1  0  0  0  0
 26 49  1  0  0  0  0
 26 50  1  0  0  0  0
 27 28  2  0  0  0  0
 27 51  1  0  0  0  0
 28 52  1  0  0  0  0
 29 30  1  0  0  0  0
 30 31  2  0  0  0  0
 30 32  1  0  0  0  0
 32 53  1  0  0  0  0
M  END
$$$$
