*****_entry_00001_conf_01
 OpenBabel06232217283D

 52 56  0  0  0  0  0  0  0  0999 V2000
  -11.2232   11.3363   26.6871 F   0  0  0  0  0  0  0  0  0  0  0  0
   -9.9043   11.5734   26.9309 C   0  0  0  0  0  0  0  0  0  0  0  0
   -9.7111   12.8979   26.6805 F   0  0  0  0  0  0  0  0  0  0  0  0
   -9.7400   11.4190   28.2740 F   0  0  0  0  0  0  0  0  0  0  0  0
   -8.9733   10.6945   26.1321 C   0  0  0  0  0  0  0  0  0  0  0  0
   -9.1406    9.2987   26.0966 C   0  0  0  0  0  0  0  0  0  0  0  0
   -8.2715    8.4822   25.3554 C   0  0  0  0  0  0  0  0  0  0  0  0
   -8.4591    7.0341   25.3340 C   0  0  0  0  0  0  0  0  0  0  0  0
   -9.2670    6.3811   26.2430 N   0  0  0  0  0  0  0  0  0  0  0  0
   -9.1517    5.1229   25.8803 C   0  0  0  0  0  0  0  0  0  0  0  0
   -9.7673    3.9270   26.4453 C   0  0  0  0  0  0  0  0  0  0  0  0
   -9.7557    2.7289   25.7093 C   0  0  0  0  0  0  0  0  0  0  0  0
  -10.3365    1.5713   26.2332 C   0  0  0  0  0  0  0  0  0  0  0  0
  -10.3260    0.3899   25.4971 N   0  0  0  0  0  0  0  0  0  0  0  0
  -10.8613   -0.7884   25.9366 C   0  0  0  0  0  0  0  0  0  0  0  0
  -10.8362   -1.7703   25.1965 O   0  0  0  0  0  0  0  0  0  0  0  0
  -11.4151   -0.7856   27.2067 N   0  0  0  0  0  0  0  0  0  0  0  0
  -12.0072   -2.0275   27.6968 C   0  0  0  0  0  0  0  0  0  0  0  0
  -10.9414   -2.9875   28.2353 C   0  0  0  0  0  0  0  0  0  0  0  0
  -11.5284   -4.3291   28.5943 C   0  0  0  0  0  0  0  0  0  0  0  0
  -12.9119   -4.4763   28.7615 C   0  0  0  0  0  0  0  0  0  0  0  0
  -13.4526   -5.7142   29.1123 C   0  0  0  0  0  0  0  0  0  0  0  0
  -12.6164   -6.8126   29.3037 C   0  0  0  0  0  0  0  0  0  0  0  0
  -11.2384   -6.6740   29.1469 C   0  0  0  0  0  0  0  0  0  0  0  0
  -10.6952   -5.4373   28.7962 C   0  0  0  0  0  0  0  0  0  0  0  0
  -11.5451    0.3516   28.0004 C   0  0  0  0  0  0  0  0  0  0  0  0
  -12.1385    0.3782   29.0760 O   0  0  0  0  0  0  0  0  0  0  0  0
  -10.9361    1.5928   27.4854 C   0  0  0  0  0  0  0  0  0  0  0  0
  -10.9618    2.7742   28.2299 C   0  0  0  0  0  0  0  0  0  0  0  0
  -10.3781    3.9343   27.7110 C   0  0  0  0  0  0  0  0  0  0  0  0
   -8.3278    4.9519   24.8059 O   0  0  0  0  0  0  0  0  0  0  0  0
   -7.8719    6.2161   24.4450 N   0  0  0  0  0  0  0  0  0  0  0  0
   -7.2249    9.0852   24.6425 C   0  0  0  0  0  0  0  0  0  0  0  0
   -7.0494   10.4702   24.6681 C   0  0  0  0  0  0  0  0  0  0  0  0
   -7.9183   11.2701   25.4086 C   0  0  0  0  0  0  0  0  0  0  0  0
   -9.9586    8.8445   26.6568 H   0  0  0  0  0  0  0  0  0  0  0  0
   -9.2882    2.7083   24.7260 H   0  0  0  0  0  0  0  0  0  0  0  0
   -9.9151    0.3581   24.5721 H   0  0  0  0  0  0  0  0  0  0  0  0
  -12.5670   -2.5037   26.8821 H   0  0  0  0  0  0  0  0  0  0  0  0
  -12.7366   -1.7937   28.4823 H   0  0  0  0  0  0  0  0  0  0  0  0
  -10.4500   -2.5559   29.1168 H   0  0  0  0  0  0  0  0  0  0  0  0
  -10.1425   -3.1248   27.4953 H   0  0  0  0  0  0  0  0  0  0  0  0
  -13.5766   -3.6265   28.6195 H   0  0  0  0  0  0  0  0  0  0  0  0
  -14.5270   -5.8209   29.2369 H   0  0  0  0  0  0  0  0  0  0  0  0
  -13.0384   -7.7762   29.5763 H   0  0  0  0  0  0  0  0  0  0  0  0
  -10.5856   -7.5297   29.2987 H   0  0  0  0  0  0  0  0  0  0  0  0
   -9.6172   -5.3432   28.6811 H   0  0  0  0  0  0  0  0  0  0  0  0
  -11.4336    2.7960   29.2108 H   0  0  0  0  0  0  0  0  0  0  0  0
  -10.4108    4.8433   28.3105 H   0  0  0  0  0  0  0  0  0  0  0  0
   -6.5333    8.4807   24.0574 H   0  0  0  0  0  0  0  0  0  0  0  0
   -6.2333   10.9234   24.1096 H   0  0  0  0  0  0  0  0  0  0  0  0
   -7.7706   12.3495   25.4217 H   0  0  0  0  0  0  0  0  0  0  0  0
  1  2  1  0  0  0  0
  2  3  1  0  0  0  0
  2  5  1  0  0  0  0
  2  4  1  0  0  0  0
  5  6  2  0  0  0  0
  5 35  1  0  0  0  0
  6  7  1  0  0  0  0
  6 36  1  0  0  0  0
  7  8  1  0  0  0  0
  7 33  2  0  0  0  0
  8  9  1  0  0  0  0
  8 32  2  0  0  0  0
  9 10  2  0  0  0  0
 10 11  1  0  0  0  0
 10 31  1  0  0  0  0
 11 12  2  0  0  0  0
 11 30  1  0  0  0  0
 12 13  1  0  0  0  0
 12 37  1  0  0  0  0
 13 14  1  0  0  0  0
 13 28  2  0  0  0  0
 14 15  1  0  0  0  0
 14 38  1  0  0  0  0
 15 16  2  0  0  0  0
 15 17  1  0  0  0  0
 17 18  1  0  0  0  0
 17 26  1  0  0  0  0
 18 40  1  0  0  0  0
 18 19  1  0  0  0  0
 18 39  1  0  0  0  0
 19 41  1  0  0  0  0
 19 20  1  0  0  0  0
 19 42  1  0  0  0  0
 20 25  2  0  0  0  0
 20 21  1  0  0  0  0
 21 22  2  0  0  0  0
 21 43  1  0  0  0  0
 22 23  1  0  0  0  0
 22 44  1  0  0  0  0
 23 24  2  0  0  0  0
 23 45  1  0  0  0  0
 24 25  1  0  0  0  0
 24 46  1  0  0  0  0
 25 47  1  0  0  0  0
 26 27  2  0  0  0  0
 26 28  1  0  0  0  0
 28 29  1  0  0  0  0
 29 30  2  0  0  0  0
 29 48  1  0  0  0  0
 30 49  1  0  0  0  0
 31 32  1  0  0  0  0
 33 34  1  0  0  0  0
 33 50  1  0  0  0  0
 34 35  2  0  0  0  0
 34 51  1  0  0  0  0
 35 52  1  0  0  0  0
M  END
$$$$
