*****_entry_00001_conf_01
 OpenBabel06232217283D

 58 61  0  0  1  0  0  0  0  0999 V2000
  -11.7255    1.2386   29.0655 Cl  0  0  0  0  0  0  0  0  0  0  0  0
  -11.3954    0.0960   27.8088 C   0  0  0  0  0  0  0  0  0  0  0  0
  -10.4602    0.3509   26.7885 C   0  0  0  0  0  0  0  0  0  0  0  0
   -9.6790    1.6537   26.7341 C   0  0  0  0  0  0  0  0  0  0  0  0
   -9.8355    2.4500   25.4947 N   0  3  1  0  0  0  0  0  0  0  0  0
  -11.2423    2.8965   25.3544 C   0  0  0  0  0  0  0  0  0  0  0  0
  -11.6686    4.0502   26.3058 C   0  0  0  0  0  0  0  0  0  0  0  0
  -10.7744    5.2294   26.3029 N   0  3  2  0  0  0  0  0  0  0  0  0
  -11.0156    6.0477   25.0902 C   0  0  0  0  0  0  0  0  0  0  0  0
  -12.2861    6.8985   25.1620 C   0  0  0  0  0  0  0  0  0  0  0  0
  -13.3963    6.4260   24.9056 O   0  0  0  0  0  0  0  0  0  0  0  0
  -12.1819    8.2162   25.5390 N   0  0  0  0  0  0  0  0  0  0  0  0
  -10.9925    8.8576   25.6753 N   0  0  0  0  0  0  0  0  0  0  0  0
  -11.0524    9.9928   26.3036 C   0  0  0  0  0  0  0  0  0  0  0  0
   -9.8661   10.8727   26.4474 C   0  0  0  0  0  0  0  0  0  0  0  0
   -9.8943   11.9176   27.3880 C   0  0  0  0  0  0  0  0  0  0  0  0
  -10.9764   12.2223   28.1712 O   0  0  0  0  0  0  0  0  0  0  0  0
   -8.7742   12.7113   27.5947 C   0  0  0  0  0  0  0  0  0  0  0  0
   -7.6066   12.4631   26.8793 C   0  0  0  0  0  0  0  0  0  0  0  0
   -7.5448   11.4312   25.9323 C   0  0  0  0  0  0  0  0  0  0  0  0
   -8.6834   10.6189   25.6830 C   0  0  0  0  0  0  0  0  0  0  0  0
   -8.5437    9.6157   24.6856 C   0  0  0  0  0  0  0  0  0  0  0  0
   -7.3434    9.4108   23.9982 C   0  0  0  0  0  0  0  0  0  0  0  0
   -6.2414   10.2028   24.2794 C   0  0  0  0  0  0  0  0  0  0  0  0
   -6.3444   11.2085   25.2366 C   0  0  0  0  0  0  0  0  0  0  0  0
   -9.3750    4.7773   26.4337 C   0  0  0  0  0  0  0  0  0  0  0  0
   -8.9632    3.6465   25.4654 C   0  0  0  0  0  0  0  0  0  0  0  0
  -10.3235   -0.6111   25.7695 C   0  0  0  0  0  0  0  0  0  0  0  0
  -11.0396   -1.8103   25.8049 C   0  0  0  0  0  0  0  0  0  0  0  0
  -11.9314   -2.0598   26.8432 C   0  0  0  0  0  0  0  0  0  0  0  0
  -12.1166   -1.1031   27.8385 C   0  0  0  0  0  0  0  0  0  0  0  0
   -8.6177    1.4612   26.9100 H   0  0  0  0  0  0  0  0  0  0  0  0
  -10.0411    2.2514   27.5815 H   0  0  0  0  0  0  0  0  0  0  0  0
  -11.9232    2.0462   25.4867 H   0  0  0  0  0  0  0  0  0  0  0  0
  -11.3886    3.2187   24.3156 H   0  0  0  0  0  0  0  0  0  0  0  0
  -11.7152    3.6667   27.3326 H   0  0  0  0  0  0  0  0  0  0  0  0
  -12.6958    4.3544   26.0682 H   0  0  0  0  0  0  0  0  0  0  0  0
  -11.1131    5.3923   24.2158 H   0  0  0  0  0  0  0  0  0  0  0  0
  -10.1821    6.7294   24.8855 H   0  0  0  0  0  0  0  0  0  0  0  0
  -13.0517    8.7380   25.5389 H   0  0  0  0  0  0  0  0  0  0  0  0
  -12.0112   10.3409   26.7166 H   0  0  0  0  0  0  0  0  0  0  0  0
  -11.0669   13.2014   28.2315 H   0  0  0  0  0  0  0  0  0  0  0  0
   -8.8056   13.5135   28.3273 H   0  0  0  0  0  0  0  0  0  0  0  0
   -6.7375   13.0895   27.0726 H   0  0  0  0  0  0  0  0  0  0  0  0
   -9.3721    8.9708   24.4083 H   0  0  0  0  0  0  0  0  0  0  0  0
   -7.2745    8.6312   23.2432 H   0  0  0  0  0  0  0  0  0  0  0  0
   -5.3039   10.0445   23.7528 H   0  0  0  0  0  0  0  0  0  0  0  0
   -5.4689   11.8235   25.4382 H   0  0  0  0  0  0  0  0  0  0  0  0
   -9.2317    4.4314   27.4654 H   0  0  0  0  0  0  0  0  0  0  0  0
   -8.6774    5.6158   26.3294 H   0  0  0  0  0  0  0  0  0  0  0  0
   -7.9183    3.3785   25.6556 H   0  0  0  0  0  0  0  0  0  0  0  0
   -8.9680    4.0375   24.4395 H   0  0  0  0  0  0  0  0  0  0  0  0
   -9.6374   -0.4331   24.9424 H   0  0  0  0  0  0  0  0  0  0  0  0
  -10.8992   -2.5481   25.0187 H   0  0  0  0  0  0  0  0  0  0  0  0
  -12.4895   -2.9919   26.8728 H   0  0  0  0  0  0  0  0  0  0  0  0
  -12.8299   -1.2941   28.6365 H   0  0  0  0  0  0  0  0  0  0  0  0
   -9.5883    1.8236   24.6503 H   0  0  0  0  0  0  0  0  0  0  0  0
  -11.0139    5.8329   27.1660 H   0  0  0  0  0  0  0  0  0  0  0  0
  1  2  1  0  0  0  0
  2  3  2  0  0  0  0
  2 31  1  0  0  0  0
  3  4  1  0  0  0  0
  3 28  1  0  0  0  0
  4  5  1  0  0  0  0
  4 32  1  0  0  0  0
  4 33  1  0  0  0  0
  5 27  1  0  0  0  0
  5  6  1  0  0  0  0
  5 57  1  6  0  0  0
  6  7  1  0  0  0  0
  6 34  1  0  0  0  0
  6 35  1  0  0  0  0
  7  8  1  0  0  0  0
  7 36  1  0  0  0  0
  7 37  1  0  0  0  0
  8 26  1  0  0  0  0
  8  9  1  0  0  0  0
  8 58  1  1  0  0  0
  9 39  1  0  0  0  0
  9 10  1  0  0  0  0
  9 38  1  0  0  0  0
 10 12  1  0  0  0  0
 10 11  2  0  0  0  0
 12 13  1  0  0  0  0
 12 40  1  0  0  0  0
 13 14  2  0  0  0  0
 14 15  1  0  0  0  0
 14 41  1  0  0  0  0
 15 16  2  0  0  0  0
 15 21  1  0  0  0  0
 16 17  1  0  0  0  0
 16 18  1  0  0  0  0
 17 42  1  0  0  0  0
 18 19  2  0  0  0  0
 18 43  1  0  0  0  0
 19 44  1  0  0  0  0
 19 20  1  0  0  0  0
 20 21  2  0  0  0  0
 20 25  1  0  0  0  0
 21 22  1  0  0  0  0
 22 23  2  0  0  0  0
 22 45  1  0  0  0  0
 23 24  1  0  0  0  0
 23 46  1  0  0  0  0
 24 25  2  0  0  0  0
 24 47  1  0  0  0  0
 25 48  1  0  0  0  0
 26 27  1  0  0  0  0
 26 49  1  0  0  0  0
 26 50  1  0  0  0  0
 27 51  1  0  0  0  0
 27 52  1  0  0  0  0
 28 29  2  0  0  0  0
 28 53  1  0  0  0  0
 29 54  1  0  0  0  0
 29 30  1  0  0  0  0
 30 31  2  0  0  0  0
 30 55  1  0  0  0  0
 31 56  1  0  0  0  0
M  CHG  2   5   1   8   1
M  END
$$$$
