*****_entry_00001_conf_01
 OpenBabel06232217283D

 42 45  0  0  0  0  0  0  0  0999 V2000
   -7.2024    4.6669   25.4052 S   0  0  0  0  0  0  0  0  0  0  0  0
   -8.8196    4.9949   26.1587 C   0  0  0  0  0  0  0  0  0  0  0  0
   -9.3329    3.7747   26.9159 C   0  0  0  0  0  0  0  0  0  0  0  0
   -9.2236    3.6965   28.1366 O   0  0  0  0  0  0  0  0  0  0  0  0
   -9.8958    2.8163   26.0886 N   0  0  0  0  0  0  0  0  0  0  0  0
  -10.3713    1.5382   26.4513 C   0  0  0  0  0  0  0  0  0  0  0  0
  -11.0350    0.6747   25.5805 C   0  0  0  0  0  0  0  0  0  0  0  0
  -11.4801   -0.5634   26.0395 C   0  0  0  0  0  0  0  0  0  0  0  0
  -12.1174   -1.3872   25.1966 F   0  0  0  0  0  0  0  0  0  0  0  0
  -11.2813   -0.9620   27.3556 C   0  0  0  0  0  0  0  0  0  0  0  0
  -10.6235   -0.1070   28.2332 C   0  0  0  0  0  0  0  0  0  0  0  0
  -10.1717    1.1367   27.7816 C   0  0  0  0  0  0  0  0  0  0  0  0
   -6.8097    6.2506   24.8154 C   0  0  0  0  0  0  0  0  0  0  0  0
   -7.4865    7.3057   25.1567 N   0  0  0  0  0  0  0  0  0  0  0  0
   -7.0288    8.4507   24.5720 C   0  0  0  0  0  0  0  0  0  0  0  0
   -7.5032    9.7523   24.7343 N   0  0  0  0  0  0  0  0  0  0  0  0
   -8.5977   10.2306   25.5164 C   0  0  0  0  0  0  0  0  0  0  0  0
   -9.6581    9.3982   25.8970 C   0  0  0  0  0  0  0  0  0  0  0  0
  -10.6939    9.8941   26.6954 C   0  0  0  0  0  0  0  0  0  0  0  0
  -10.6882   11.2253   27.1055 C   0  0  0  0  0  0  0  0  0  0  0  0
   -9.6542   12.0691   26.7088 C   0  0  0  0  0  0  0  0  0  0  0  0
   -8.6145   11.5773   25.9162 C   0  0  0  0  0  0  0  0  0  0  0  0
   -6.7383   10.6379   24.0192 N   0  0  0  0  0  0  0  0  0  0  0  0
   -5.8271    9.8893   23.3950 C   0  0  0  0  0  0  0  0  0  0  0  0
   -5.9608    8.5402   23.7070 C   0  0  0  0  0  0  0  0  0  0  0  0
   -5.2452    7.3539   23.3369 C   0  0  0  0  0  0  0  0  0  0  0  0
   -4.2994    7.3338   22.5620 O   0  0  0  0  0  0  0  0  0  0  0  0
   -5.7439    6.2267   23.9507 N   0  0  0  0  0  0  0  0  0  0  0  0
   -9.5402    5.2177   25.3650 H   0  0  0  0  0  0  0  0  0  0  0  0
   -8.7653    5.8819   26.7971 H   0  0  0  0  0  0  0  0  0  0  0  0
  -10.0535    3.0800   25.1235 H   0  0  0  0  0  0  0  0  0  0  0  0
  -11.2293    0.9243   24.5441 H   0  0  0  0  0  0  0  0  0  0  0  0
  -11.6400   -1.9319   27.6842 H   0  0  0  0  0  0  0  0  0  0  0  0
  -10.4602   -0.4037   29.2661 H   0  0  0  0  0  0  0  0  0  0  0  0
   -9.6618    1.7841   28.4905 H   0  0  0  0  0  0  0  0  0  0  0  0
   -9.7272    8.3683   25.5675 H   0  0  0  0  0  0  0  0  0  0  0  0
  -11.5144    9.2434   26.9887 H   0  0  0  0  0  0  0  0  0  0  0  0
  -11.4966   11.6104   27.7221 H   0  0  0  0  0  0  0  0  0  0  0  0
   -9.6542   13.1132   27.0126 H   0  0  0  0  0  0  0  0  0  0  0  0
   -7.8173   12.2593   25.6239 H   0  0  0  0  0  0  0  0  0  0  0  0
   -5.1006   10.3671   22.7491 H   0  0  0  0  0  0  0  0  0  0  0  0
   -5.2890    5.3490   23.7526 H   0  0  0  0  0  0  0  0  0  0  0  0
  1  2  1  0  0  0  0
  1 13  1  0  0  0  0
  2 29  1  0  0  0  0
  2 30  1  0  0  0  0
  2  3  1  0  0  0  0
  3  4  2  0  0  0  0
  3  5  1  0  0  0  0
  5 31  1  0  0  0  0
  5  6  1  0  0  0  0
  6  7  2  0  0  0  0
  6 12  1  0  0  0  0
  7  8  1  0  0  0  0
  7 32  1  0  0  0  0
  8  9  1  0  0  0  0
  8 10  2  0  0  0  0
 10 11  1  0  0  0  0
 10 33  1  0  0  0  0
 11 12  2  0  0  0  0
 11 34  1  0  0  0  0
 12 35  1  0  0  0  0
 13 28  1  0  0  0  0
 13 14  2  0  0  0  0
 14 15  1  0  0  0  0
 15 25  2  0  0  0  0
 15 16  1  0  0  0  0
 16 17  1  0  0  0  0
 16 23  1  0  0  0  0
 17 18  2  0  0  0  0
 17 22  1  0  0  0  0
 18 36  1  0  0  0  0
 18 19  1  0  0  0  0
 19 20  2  0  0  0  0
 19 37  1  0  0  0  0
 20 21  1  0  0  0  0
 20 38  1  0  0  0  0
 21 22  2  0  0  0  0
 21 39  1  0  0  0  0
 22 40  1  0  0  0  0
 23 24  2  0  0  0  0
 24 25  1  0  0  0  0
 24 41  1  0  0  0  0
 25 26  1  0  0  0  0
 26 27  2  0  0  0  0
 26 28  1  0  0  0  0
 28 42  1  0  0  0  0
M  END
$$$$
