*****_entry_00001_conf_01
 OpenBabel06232217283D

 70 73  0  0  0  0  0  0  0  0999 V2000
  -11.9902    6.6228   21.1173 O   0  0  0  0  0  0  0  0  0  0  0  0
  -11.1445    6.2004   21.9051 C   0  0  0  0  0  0  0  0  0  0  0  0
   -9.7628    5.7572   21.4337 C   0  0  0  0  0  0  0  0  0  0  0  0
   -8.6952    6.8567   21.4154 C   0  0  0  0  0  0  0  0  0  0  0  0
   -7.3104    6.4802   20.8735 C   0  0  0  0  0  0  0  0  0  0  0  0
   -6.3950    5.7096   21.8245 C   0  0  0  0  0  0  0  0  0  0  0  0
   -6.0542    6.4826   23.1020 C   0  0  0  0  0  0  0  0  0  0  0  0
   -5.6921    7.8650   22.7990 N   0  0  0  0  0  0  0  0  0  0  0  0
   -6.3535    8.8764   23.4805 C   0  0  0  0  0  0  0  0  0  0  0  0
   -7.2484    8.6876   24.3025 O   0  0  0  0  0  0  0  0  0  0  0  0
   -5.9646   10.1584   23.2071 N   0  0  0  0  0  0  0  0  0  0  0  0
   -4.9537   10.4909   22.3103 C   0  0  0  0  0  0  0  0  0  0  0  0
   -4.2670    9.4805   21.6473 C   0  0  0  0  0  0  0  0  0  0  0  0
   -4.6325    8.0768   21.9194 C   0  0  0  0  0  0  0  0  0  0  0  0
   -3.9939    7.1768   21.3769 O   0  0  0  0  0  0  0  0  0  0  0  0
   -3.2498    9.7973   20.7425 C   0  0  0  0  0  0  0  0  0  0  0  0
   -2.9300   11.1354   20.4988 C   0  0  0  0  0  0  0  0  0  0  0  0
   -3.6249   12.1593   21.1611 C   0  0  0  0  0  0  0  0  0  0  0  0
   -3.3463   13.6003   20.9086 C   0  0  0  0  0  0  0  0  0  0  0  0
   -4.0241   14.5041   21.3661 O   0  0  0  0  0  0  0  0  0  0  0  0
   -2.2774   13.7378   20.0861 O   0  0  0  0  0  0  0  0  0  0  0  0
   -1.9230   15.0913   19.7960 C   0  0  0  0  0  0  0  0  0  0  0  0
   -4.6358   11.8304   22.0782 C   0  0  0  0  0  0  0  0  0  0  0  0
  -11.3983    6.1255   23.2705 N   0  0  0  0  0  0  0  0  0  0  0  0
  -10.3932    5.8737   24.3014 C   0  0  0  0  0  0  0  0  0  0  0  0
   -9.8765    7.2029   24.8728 C   0  0  0  0  0  0  0  0  0  0  0  0
  -10.9808    8.0791   25.3526 N   0  3  0  0  0  0  0  0  0  0  0  0
  -10.5810    9.3164   25.9170 C   0  0  0  0  0  0  0  0  0  0  0  0
   -9.2449    9.7544   25.9339 C   0  0  0  0  0  0  0  0  0  0  0  0
   -8.8748   11.0093   26.4377 C   0  0  0  0  0  0  0  0  0  0  0  0
   -9.8366   11.8639   26.9597 C   0  0  0  0  0  0  0  0  0  0  0  0
   -9.5947   13.1174   27.4479 O   0  0  0  0  0  0  0  0  0  0  0  0
   -8.2563   13.5809   27.2958 C   0  0  0  0  0  0  0  0  0  0  0  0
  -11.1536   11.4243   27.0358 C   0  0  0  0  0  0  0  0  0  0  0  0
  -11.5171   10.1691   26.5260 C   0  0  0  0  0  0  0  0  0  0  0  0
  -12.1205    8.2094   24.3866 C   0  0  0  0  0  0  0  0  0  0  0  0
  -12.5539    6.8451   23.8044 C   0  0  0  0  0  0  0  0  0  0  0  0
   -9.8620    5.3984   20.4027 H   0  0  0  0  0  0  0  0  0  0  0  0
   -9.4321    4.9193   22.0557 H   0  0  0  0  0  0  0  0  0  0  0  0
   -8.5655    7.2361   22.4370 H   0  0  0  0  0  0  0  0  0  0  0  0
   -9.0848    7.6976   20.8282 H   0  0  0  0  0  0  0  0  0  0  0  0
   -6.7837    7.3837   20.5498 H   0  0  0  0  0  0  0  0  0  0  0  0
   -7.4537    5.8839   19.9631 H   0  0  0  0  0  0  0  0  0  0  0  0
   -5.4790    5.4017   21.3082 H   0  0  0  0  0  0  0  0  0  0  0  0
   -6.9061    4.7788   22.1032 H   0  0  0  0  0  0  0  0  0  0  0  0
   -5.2224    5.9951   23.6241 H   0  0  0  0  0  0  0  0  0  0  0  0
   -6.9095    6.4817   23.7865 H   0  0  0  0  0  0  0  0  0  0  0  0
   -6.4679   10.8776   23.7126 H   0  0  0  0  0  0  0  0  0  0  0  0
   -2.7114    9.0077   20.2221 H   0  0  0  0  0  0  0  0  0  0  0  0
   -2.1414   11.3641   19.7851 H   0  0  0  0  0  0  0  0  0  0  0  0
   -0.9427   15.0860   19.3111 H   0  0  0  0  0  0  0  0  0  0  0  0
   -1.8523   15.6922   20.7080 H   0  0  0  0  0  0  0  0  0  0  0  0
   -2.6516   15.5222   19.1028 H   0  0  0  0  0  0  0  0  0  0  0  0
   -5.1734   12.6233   22.5953 H   0  0  0  0  0  0  0  0  0  0  0  0
   -9.5593    5.2828   23.9183 H   0  0  0  0  0  0  0  0  0  0  0  0
  -10.8741    5.2839   25.0914 H   0  0  0  0  0  0  0  0  0  0  0  0
   -9.3109    7.7186   24.0861 H   0  0  0  0  0  0  0  0  0  0  0  0
   -9.2016    6.9635   25.7034 H   0  0  0  0  0  0  0  0  0  0  0  0
   -8.4421    9.1443   25.5329 H   0  0  0  0  0  0  0  0  0  0  0  0
   -7.8253   11.2806   26.4100 H   0  0  0  0  0  0  0  0  0  0  0  0
   -8.2409   14.6479   27.5372 H   0  0  0  0  0  0  0  0  0  0  0  0
   -7.9090   13.4677   26.2622 H   0  0  0  0  0  0  0  0  0  0  0  0
   -7.5823   13.0733   27.9932 H   0  0  0  0  0  0  0  0  0  0  0  0
  -11.9114   12.0632   27.4818 H   0  0  0  0  0  0  0  0  0  0  0  0
  -12.5557    9.8694   26.6291 H   0  0  0  0  0  0  0  0  0  0  0  0
  -11.8192    8.8734   23.5661 H   0  0  0  0  0  0  0  0  0  0  0  0
  -13.0031    8.6402   24.8706 H   0  0  0  0  0  0  0  0  0  0  0  0
  -13.3188    6.9965   23.0358 H   0  0  0  0  0  0  0  0  0  0  0  0
  -12.9970    6.2230   24.5913 H   0  0  0  0  0  0  0  0  0  0  0  0
  -11.4065    7.5290   26.1787 H   0  0  0  0  0  0  0  0  0  0  0  0
  1  2  2  0  0  0  0
  2 24  1  0  0  0  0
  2  3  1  0  0  0  0
  3  4  1  0  0  0  0
  3 38  1  0  0  0  0
  3 39  1  0  0  0  0
  4  5  1  0  0  0  0
  4 41  1  0  0  0  0
  4 40  1  0  0  0  0
  5  6  1  0  0  0  0
  5 42  1  0  0  0  0
  5 43  1  0  0  0  0
  6  7  1  0  0  0  0
  6 45  1  0  0  0  0
  6 44  1  0  0  0  0
  7  8  1  0  0  0  0
  7 46  1  0  0  0  0
  7 47  1  0  0  0  0
  8  9  1  0  0  0  0
  8 14  1  0  0  0  0
  9 10  2  0  0  0  0
  9 11  1  0  0  0  0
 11 12  1  0  0  0  0
 11 48  1  0  0  0  0
 12 13  2  0  0  0  0
 12 23  1  0  0  0  0
 13 16  1  0  0  0  0
 13 14  1  0  0  0  0
 14 15  2  0  0  0  0
 16 17  2  0  0  0  0
 16 49  1  0  0  0  0
 17 18  1  0  0  0  0
 17 50  1  0  0  0  0
 18 19  1  0  0  0  0
 18 23  2  0  0  0  0
 19 21  1  0  0  0  0
 19 20  2  0  0  0  0
 21 22  1  0  0  0  0
 22 51  1  0  0  0  0
 22 52  1  0  0  0  0
 22 53  1  0  0  0  0
 23 54  1  0  0  0  0
 24 25  1  0  0  0  0
 24 37  1  0  0  0  0
 25 55  1  0  0  0  0
 25 56  1  0  0  0  0
 25 26  1  0  0  0  0
 26 27  1  0  0  0  0
 26 57  1  0  0  0  0
 26 58  1  0  0  0  0
 27 36  1  0  0  0  0
 27 28  1  0  0  0  0
 27 70  1  0  0  0  0
 28 29  2  0  0  0  0
 28 35  1  0  0  0  0
 29 59  1  0  0  0  0
 29 30  1  0  0  0  0
 30 31  2  0  0  0  0
 30 60  1  0  0  0  0
 31 32  1  0  0  0  0
 31 34  1  0  0  0  0
 32 33  1  0  0  0  0
 33 61  1  0  0  0  0
 33 62  1  0  0  0  0
 33 63  1  0  0  0  0
 34 35  2  0  0  0  0
 34 64  1  0  0  0  0
 35 65  1  0  0  0  0
 36 37  1  0  0  0  0
 36 66  1  0  0  0  0
 36 67  1  0  0  0  0
 37 68  1  0  0  0  0
 37 69  1  0  0  0  0
M  CHG  1  27   1
M  END
$$$$
