*****_entry_00001_conf_01
 OpenBabel06232217283D

 59 62  0  0  0  0  0  0  0  0999 V2000
   -6.7267    9.8349   23.7702 S   0  0  0  0  0  0  0  0  0  0  0  0
   -5.3615    9.5526   24.1703 O   0  0  0  0  0  0  0  0  0  0  0  0
   -7.0228   10.2177   22.4104 O   0  0  0  0  0  0  0  0  0  0  0  0
   -7.3539   10.9809   24.8967 N   0  0  0  0  0  0  0  0  0  0  0  0
   -6.7225   12.3214   24.7589 C   0  0  0  0  0  0  0  0  0  0  0  0
   -7.6564   10.5612   26.3176 C   0  0  0  0  0  0  0  0  0  0  0  0
   -7.7985   11.7699   27.2766 C   0  0  0  0  0  0  0  0  0  0  0  0
   -9.0364   12.6278   26.9943 C   0  0  0  0  0  0  0  0  0  0  0  0
  -10.3184   11.8029   26.9831 C   0  0  0  0  0  0  0  0  0  0  0  0
  -10.1972   10.5822   26.0782 C   0  0  0  0  0  0  0  0  0  0  0  0
   -8.9647    9.7557   26.4407 C   0  0  0  0  0  0  0  0  0  0  0  0
   -7.6702    8.3526   24.0991 C   0  0  0  0  0  0  0  0  0  0  0  0
   -7.0860    7.2904   24.7872 C   0  0  0  0  0  0  0  0  0  0  0  0
   -7.8378    6.1386   25.0382 C   0  0  0  0  0  0  0  0  0  0  0  0
   -9.1835    6.0492   24.6382 C   0  0  0  0  0  0  0  0  0  0  0  0
   -9.9211    4.7797   24.9491 C   0  0  0  0  0  0  0  0  0  0  0  0
  -11.0155    4.6146   24.4219 O   0  0  0  0  0  0  0  0  0  0  0  0
   -9.3024    3.9152   25.8260 N   0  0  0  0  0  0  0  0  0  0  0  0
   -9.8645    2.7203   26.1903 C   0  0  0  0  0  0  0  0  0  0  0  0
   -8.9550    1.8569   27.3473 S   0  0  0  0  0  0  0  0  0  0  0  0
  -10.1216    0.5865   27.3004 C   0  0  0  0  0  0  0  0  0  0  0  0
  -11.1348    0.9422   26.4094 C   0  0  0  0  0  0  0  0  0  0  0  0
  -10.9706    2.1624   25.7822 N   0  0  0  0  0  0  0  0  0  0  0  0
  -12.2076    0.0530   26.2230 C   0  0  0  0  0  0  0  0  0  0  0  0
  -12.2352   -1.1671   26.9140 C   0  0  0  0  0  0  0  0  0  0  0  0
  -11.2112   -1.5199   27.7911 C   0  0  0  0  0  0  0  0  0  0  0  0
  -11.1703   -2.7431   28.4954 N   0  0  0  0  0  0  0  0  0  0  0  0
  -12.1595   -3.7085   28.5660 C   0  0  0  0  0  0  0  0  0  0  0  0
  -13.2785   -3.6561   28.0690 O   0  0  0  0  0  0  0  0  0  0  0  0
  -11.7411   -4.9019   29.3890 C   0  0  0  0  0  0  0  0  0  0  0  0
  -10.1394   -0.6355   27.9986 C   0  0  0  0  0  0  0  0  0  0  0  0
   -9.7741    7.1500   24.0007 C   0  0  0  0  0  0  0  0  0  0  0  0
   -9.0174    8.2949   23.7244 C   0  0  0  0  0  0  0  0  0  0  0  0
   -6.3678   12.5096   23.7418 H   0  0  0  0  0  0  0  0  0  0  0  0
   -5.8716   12.4182   25.4404 H   0  0  0  0  0  0  0  0  0  0  0  0
   -7.4476   13.1115   24.9653 H   0  0  0  0  0  0  0  0  0  0  0  0
   -6.8204    9.9557   26.6807 H   0  0  0  0  0  0  0  0  0  0  0  0
   -6.9025   12.3990   27.2724 H   0  0  0  0  0  0  0  0  0  0  0  0
   -7.8762   11.3868   28.3038 H   0  0  0  0  0  0  0  0  0  0  0  0
   -8.9333   13.1369   26.0302 H   0  0  0  0  0  0  0  0  0  0  0  0
   -9.1160   13.4129   27.7551 H   0  0  0  0  0  0  0  0  0  0  0  0
  -11.1584   12.4265   26.6565 H   0  0  0  0  0  0  0  0  0  0  0  0
  -10.5457   11.4746   28.0049 H   0  0  0  0  0  0  0  0  0  0  0  0
  -10.1454   10.8976   25.0294 H   0  0  0  0  0  0  0  0  0  0  0  0
  -11.0970    9.9648   26.1800 H   0  0  0  0  0  0  0  0  0  0  0  0
   -8.9569    8.8365   25.8579 H   0  0  0  0  0  0  0  0  0  0  0  0
   -9.0687    9.4181   27.4815 H   0  0  0  0  0  0  0  0  0  0  0  0
   -6.0610    7.3492   25.1437 H   0  0  0  0  0  0  0  0  0  0  0  0
   -7.3701    5.3066   25.5653 H   0  0  0  0  0  0  0  0  0  0  0  0
   -8.4198    4.1250   26.2583 H   0  0  0  0  0  0  0  0  0  0  0  0
  -13.0075    0.3155   25.5368 H   0  0  0  0  0  0  0  0  0  0  0  0
  -13.0822   -1.8213   26.7292 H   0  0  0  0  0  0  0  0  0  0  0  0
  -10.3164   -2.9340   29.0040 H   0  0  0  0  0  0  0  0  0  0  0  0
  -10.6666   -5.0866   29.3016 H   0  0  0  0  0  0  0  0  0  0  0  0
  -12.2659   -5.7911   29.0275 H   0  0  0  0  0  0  0  0  0  0  0  0
  -11.9991   -4.7263   30.4365 H   0  0  0  0  0  0  0  0  0  0  0  0
   -9.3283   -0.8784   28.6774 H   0  0  0  0  0  0  0  0  0  0  0  0
  -10.8251    7.1680   23.7325 H   0  0  0  0  0  0  0  0  0  0  0  0
   -9.4937    9.1450   23.2382 H   0  0  0  0  0  0  0  0  0  0  0  0
  1  2  2  0  0  0  0
  1 12  1  0  0  0  0
  1  3  2  0  0  0  0
  1  4  1  0  0  0  0
  4  5  1  0  0  0  0
  4  6  1  0  0  0  0
  5 34  1  0  0  0  0
  5 35  1  0  0  0  0
  5 36  1  0  0  0  0
  6 11  1  0  0  0  0
  6  7  1  0  0  0  0
  6 37  1  0  0  0  0
  7 38  1  0  0  0  0
  7 39  1  0  0  0  0
  7  8  1  0  0  0  0
  8  9  1  0  0  0  0
  8 40  1  0  0  0  0
  8 41  1  0  0  0  0
  9 42  1  0  0  0  0
  9 43  1  0  0  0  0
  9 10  1  0  0  0  0
 10 11  1  0  0  0  0
 10 44  1  0  0  0  0
 10 45  1  0  0  0  0
 11 46  1  0  0  0  0
 11 47  1  0  0  0  0
 12 33  2  0  0  0  0
 12 13  1  0  0  0  0
 13 48  1  0  0  0  0
 13 14  2  0  0  0  0
 14 49  1  0  0  0  0
 14 15  1  0  0  0  0
 15 16  1  0  0  0  0
 15 32  2  0  0  0  0
 16 17  2  0  0  0  0
 16 18  1  0  0  0  0
 18 50  1  0  0  0  0
 18 19  1  0  0  0  0
 19 20  1  0  0  0  0
 19 23  2  0  0  0  0
 20 21  1  0  0  0  0
 21 22  2  0  0  0  0
 21 31  1  0  0  0  0
 22 23  1  0  0  0  0
 22 24  1  0  0  0  0
 24 25  2  0  0  0  0
 24 51  1  0  0  0  0
 25 26  1  0  0  0  0
 25 52  1  0  0  0  0
 26 27  1  0  0  0  0
 26 31  2  0  0  0  0
 27 53  1  0  0  0  0
 27 28  1  0  0  0  0
 28 30  1  0  0  0  0
 28 29  2  0  0  0  0
 30 54  1  0  0  0  0
 30 55  1  0  0  0  0
 30 56  1  0  0  0  0
 31 57  1  0  0  0  0
 32 33  1  0  0  0  0
 32 58  1  0  0  0  0
 33 59  1  0  0  0  0
M  END
$$$$
