*****_entry_00001_conf_01
 OpenBabel06232217283D

 41 44  0  0  0  0  0  0  0  0999 V2000
   -1.3199    5.4234   18.6278 Br  0  0  0  0  0  0  0  0  0  0  0  0
   -1.4238    7.3137   18.6729 C   0  0  0  0  0  0  0  0  0  0  0  0
   -2.3356    7.9767   19.4979 C   0  0  0  0  0  0  0  0  0  0  0  0
   -3.1992    7.2219   20.3163 O   0  0  0  0  0  0  0  0  0  0  0  0
   -4.1364    7.8140   21.1535 C   0  0  0  0  0  0  0  0  0  0  0  0
   -4.8852    7.1315   21.8491 O   0  0  0  0  0  0  0  0  0  0  0  0
   -4.1975    9.2903   21.1687 C   0  0  0  0  0  0  0  0  0  0  0  0
   -5.1657   10.0506   22.0225 C   0  0  0  0  0  0  0  0  0  0  0  0
   -5.1694   11.2811   22.0333 O   0  0  0  0  0  0  0  0  0  0  0  0
   -6.0316    9.2696   22.7647 N   0  0  0  0  0  0  0  0  0  0  0  0
   -6.9548    9.8585   23.5729 N   0  0  0  0  0  0  0  0  0  0  0  0
   -7.8324    9.0565   24.0942 C   0  0  0  0  0  0  0  0  0  0  0  0
   -8.8912    9.5604   25.0048 C   0  0  0  0  0  0  0  0  0  0  0  0
  -10.1180    8.8752   25.0756 C   0  0  0  0  0  0  0  0  0  0  0  0
  -10.4161    7.7571   24.3416 O   0  0  0  0  0  0  0  0  0  0  0  0
  -11.1243    9.3095   25.9265 C   0  0  0  0  0  0  0  0  0  0  0  0
  -10.9237   10.4381   26.7143 C   0  0  0  0  0  0  0  0  0  0  0  0
   -9.7165   11.1498   26.6631 C   0  0  0  0  0  0  0  0  0  0  0  0
   -8.6682   10.7245   25.8031 C   0  0  0  0  0  0  0  0  0  0  0  0
   -7.4829   11.5082   25.8051 C   0  0  0  0  0  0  0  0  0  0  0  0
   -7.3418   12.6403   26.6130 C   0  0  0  0  0  0  0  0  0  0  0  0
   -8.3793   13.0304   27.4450 C   0  0  0  0  0  0  0  0  0  0  0  0
   -9.5579   12.2896   27.4684 C   0  0  0  0  0  0  0  0  0  0  0  0
   -3.3718   10.0137   20.3939 C   0  0  0  0  0  0  0  0  0  0  0  0
   -2.4042    9.3677   19.5217 C   0  0  0  0  0  0  0  0  0  0  0  0
   -1.5453   10.1080   18.7055 C   0  0  0  0  0  0  0  0  0  0  0  0
   -0.6328    9.4463   17.8803 C   0  0  0  0  0  0  0  0  0  0  0  0
    0.5275   10.4533   16.7779 Br  0  0  0  0  0  0  0  0  0  0  0  0
   -0.5664    8.0529   17.8583 C   0  0  0  0  0  0  0  0  0  0  0  0
   -5.9726    8.2489   22.7241 H   0  0  0  0  0  0  0  0  0  0  0  0
   -7.8048    7.9815   23.8607 H   0  0  0  0  0  0  0  0  0  0  0  0
  -11.3465    7.4956   24.5308 H   0  0  0  0  0  0  0  0  0  0  0  0
  -12.0661    8.7688   25.9731 H   0  0  0  0  0  0  0  0  0  0  0  0
  -11.7296   10.7607   27.3711 H   0  0  0  0  0  0  0  0  0  0  0  0
   -6.6372   11.2621   25.1700 H   0  0  0  0  0  0  0  0  0  0  0  0
   -6.4197   13.2158   26.5860 H   0  0  0  0  0  0  0  0  0  0  0  0
   -8.2759   13.9111   28.0734 H   0  0  0  0  0  0  0  0  0  0  0  0
  -10.3621   12.6152   28.1260 H   0  0  0  0  0  0  0  0  0  0  0  0
   -3.4062   11.1012   20.3924 H   0  0  0  0  0  0  0  0  0  0  0  0
   -1.5840   11.1955   18.7090 H   0  0  0  0  0  0  0  0  0  0  0  0
    0.1476    7.5492   17.2114 H   0  0  0  0  0  0  0  0  0  0  0  0
  1  2  1  0  0  0  0
  2  3  2  0  0  0  0
  2 29  1  0  0  0  0
  3 25  1  0  0  0  0
  3  4  1  0  0  0  0
  4  5  1  0  0  0  0
  5  7  1  0  0  0  0
  5  6  2  0  0  0  0
  7  8  1  0  0  0  0
  7 24  2  0  0  0  0
  8  9  2  0  0  0  0
  8 10  1  0  0  0  0
 10 30  1  0  0  0  0
 10 11  1  0  0  0  0
 11 12  2  0  0  0  0
 12 13  1  0  0  0  0
 12 31  1  0  0  0  0
 13 14  2  0  0  0  0
 13 19  1  0  0  0  0
 14 15  1  0  0  0  0
 14 16  1  0  0  0  0
 15 32  1  0  0  0  0
 16 17  2  0  0  0  0
 16 33  1  0  0  0  0
 17 18  1  0  0  0  0
 17 34  1  0  0  0  0
 18 19  2  0  0  0  0
 18 23  1  0  0  0  0
 19 20  1  0  0  0  0
 20 21  2  0  0  0  0
 20 35  1  0  0  0  0
 21 22  1  0  0  0  0
 21 36  1  0  0  0  0
 22 37  1  0  0  0  0
 22 23  2  0  0  0  0
 23 38  1  0  0  0  0
 24 25  1  0  0  0  0
 24 39  1  0  0  0  0
 25 26  2  0  0  0  0
 26 27  1  0  0  0  0
 26 40  1  0  0  0  0
 27 28  1  0  0  0  0
 27 29  2  0  0  0  0
 29 41  1  0  0  0  0
M  END
$$$$
