*****_entry_00001_conf_01
 OpenBabel06232217283D

 48 52  0  0  0  0  0  0  0  0999 V2000
  -12.1435   -3.6882   28.4355 Cl  0  0  0  0  0  0  0  0  0  0  0  0
  -11.4610   -2.3147   27.6494 C   0  0  0  0  0  0  0  0  0  0  0  0
  -11.1572   -1.1769   28.4076 C   0  0  0  0  0  0  0  0  0  0  0  0
  -10.6046   -0.0798   27.7363 C   0  0  0  0  0  0  0  0  0  0  0  0
  -10.2124    1.1510   28.1955 N   0  0  0  0  0  0  0  0  0  0  0  0
   -9.7696    1.7688   27.1133 C   0  0  0  0  0  0  0  0  0  0  0  0
   -9.2326    3.1219   26.9877 C   0  0  0  0  0  0  0  0  0  0  0  0
   -8.4648    3.5237   25.8807 C   0  0  0  0  0  0  0  0  0  0  0  0
   -7.9680    4.8340   25.7619 C   0  0  0  0  0  0  0  0  0  0  0  0
   -7.2035    5.1097   24.6053 N   0  0  0  0  0  0  0  0  0  0  0  0
   -6.7616    6.2752   24.0210 C   0  0  0  0  0  0  0  0  0  0  0  0
   -5.6990    6.5025   22.7525 S   0  0  0  0  0  0  0  0  0  0  0  0
   -7.2594    7.4345   24.5949 N   0  0  0  0  0  0  0  0  0  0  0  0
   -7.0174    8.7657   24.2790 C   0  0  0  0  0  0  0  0  0  0  0  0
   -6.2699    9.0984   23.3593 O   0  0  0  0  0  0  0  0  0  0  0  0
   -7.7521    9.7002   25.1075 C   0  0  0  0  0  0  0  0  0  0  0  0
   -7.5387   11.0409   25.4013 C   0  0  0  0  0  0  0  0  0  0  0  0
   -6.4299   11.8957   24.9051 C   0  0  0  0  0  0  0  0  0  0  0  0
   -8.6042   11.4296   26.2712 C   0  0  0  0  0  0  0  0  0  0  0  0
   -9.3867   10.2970   26.4532 C   0  0  0  0  0  0  0  0  0  0  0  0
   -8.8807    9.2539   25.7444 O   0  0  0  0  0  0  0  0  0  0  0  0
  -10.5288   10.2510   27.2496 C   0  0  0  0  0  0  0  0  0  0  0  0
  -10.8932   11.4406   27.8879 C   0  0  0  0  0  0  0  0  0  0  0  0
  -10.1404   12.6058   27.7253 C   0  0  0  0  0  0  0  0  0  0  0  0
   -8.9909   12.6167   26.9218 C   0  0  0  0  0  0  0  0  0  0  0  0
   -8.2298    5.7372   26.7900 C   0  0  0  0  0  0  0  0  0  0  0  0
   -8.9872    5.3539   27.9004 C   0  0  0  0  0  0  0  0  0  0  0  0
   -9.4874    4.0574   27.9967 C   0  0  0  0  0  0  0  0  0  0  0  0
   -9.8439    1.0213   25.9628 O   0  0  0  0  0  0  0  0  0  0  0  0
  -10.3824   -0.1625   26.3716 C   0  0  0  0  0  0  0  0  0  0  0  0
  -10.6711   -1.2727   25.5878 C   0  0  0  0  0  0  0  0  0  0  0  0
  -11.2249   -2.3648   26.2689 C   0  0  0  0  0  0  0  0  0  0  0  0
  -11.3390   -1.1343   29.4750 H   0  0  0  0  0  0  0  0  0  0  0  0
   -8.2596    2.8019   25.0915 H   0  0  0  0  0  0  0  0  0  0  0  0
   -6.9498    4.2770   24.0711 H   0  0  0  0  0  0  0  0  0  0  0  0
   -7.9245    7.2782   25.3442 H   0  0  0  0  0  0  0  0  0  0  0  0
   -6.2214   11.6959   23.8493 H   0  0  0  0  0  0  0  0  0  0  0  0
   -5.5190   11.7071   25.4816 H   0  0  0  0  0  0  0  0  0  0  0  0
   -6.6767   12.9582   24.9931 H   0  0  0  0  0  0  0  0  0  0  0  0
  -11.1025    9.3395   27.3652 H   0  0  0  0  0  0  0  0  0  0  0  0
  -11.7788   11.4582   28.5200 H   0  0  0  0  0  0  0  0  0  0  0  0
  -10.4486   13.5197   28.2295 H   0  0  0  0  0  0  0  0  0  0  0  0
   -8.4152   13.5303   26.8061 H   0  0  0  0  0  0  0  0  0  0  0  0
   -7.8410    6.7470   26.7894 H   0  0  0  0  0  0  0  0  0  0  0  0
   -9.1808    6.0706   28.6951 H   0  0  0  0  0  0  0  0  0  0  0  0
  -10.0764    3.7769   28.8687 H   0  0  0  0  0  0  0  0  0  0  0  0
  -10.4799   -1.2875   24.5223 H   0  0  0  0  0  0  0  0  0  0  0  0
  -11.4738   -3.2648   25.7097 H   0  0  0  0  0  0  0  0  0  0  0  0
  1  2  1  0  0  0  0
  2 32  2  0  0  0  0
  2  3  1  0  0  0  0
  3  4  2  0  0  0  0
  3 33  1  0  0  0  0
  4  5  1  0  0  0  0
  4 30  1  0  0  0  0
  5  6  2  0  0  0  0
  6  7  1  0  0  0  0
  6 29  1  0  0  0  0
  7  8  2  0  0  0  0
  7 28  1  0  0  0  0
  8 34  1  0  0  0  0
  8  9  1  0  0  0  0
  9 10  1  0  0  0  0
  9 26  2  0  0  0  0
 10 11  1  0  0  0  0
 10 35  1  0  0  0  0
 11 12  2  0  0  0  0
 11 13  1  0  0  0  0
 13 14  1  0  0  0  0
 13 36  1  0  0  0  0
 14 15  2  0  0  0  0
 14 16  1  0  0  0  0
 16 17  2  0  0  0  0
 16 21  1  0  0  0  0
 17 18  1  0  0  0  0
 17 19  1  0  0  0  0
 18 37  1  0  0  0  0
 18 38  1  0  0  0  0
 18 39  1  0  0  0  0
 19 20  2  0  0  0  0
 19 25  1  0  0  0  0
 20 21  1  0  0  0  0
 20 22  1  0  0  0  0
 22 23  2  0  0  0  0
 22 40  1  0  0  0  0
 23 24  1  0  0  0  0
 23 41  1  0  0  0  0
 24 25  2  0  0  0  0
 24 42  1  0  0  0  0
 25 43  1  0  0  0  0
 26 27  1  0  0  0  0
 26 44  1  0  0  0  0
 27 28  2  0  0  0  0
 27 45  1  0  0  0  0
 28 46  1  0  0  0  0
 29 30  1  0  0  0  0
 30 31  2  0  0  0  0
 31 32  1  0  0  0  0
 31 47  1  0  0  0  0
 32 48  1  0  0  0  0
M  END
$$$$
