*****_entry_00001_conf_01
 OpenBabel06232217283D

 53 56  0  0  0  0  0  0  0  0999 V2000
  -12.8602    3.3375   25.6796 Cl  0  0  0  0  0  0  0  0  0  0  0  0
  -11.7439    2.0129   25.7235 C   0  0  0  0  0  0  0  0  0  0  0  0
  -10.3610    2.2369   25.8506 C   0  0  0  0  0  0  0  0  0  0  0  0
   -9.8972    3.5714   25.9088 N   0  0  0  0  0  0  0  0  0  0  0  0
   -8.6209    4.0235   26.1928 C   0  0  0  0  0  0  0  0  0  0  0  0
   -7.6588    3.3288   26.5094 O   0  0  0  0  0  0  0  0  0  0  0  0
   -8.4727    5.5268   26.0243 C   0  0  0  0  0  0  0  0  0  0  0  0
   -7.4903    5.9057   24.5394 S   0  0  0  0  0  0  0  0  0  0  0  0
   -7.6332    7.6231   24.4777 C   0  0  0  0  0  0  0  0  0  0  0  0
   -7.2072    8.6363   23.6493 C   0  0  0  0  0  0  0  0  0  0  0  0
   -6.2544    8.4782   22.2106 S   0  0  0  0  0  0  0  0  0  0  0  0
   -6.7213    9.5479   21.3466 O   0  0  0  0  0  0  0  0  0  0  0  0
   -4.8795    8.4205   22.6699 O   0  0  0  0  0  0  0  0  0  0  0  0
   -6.6849    6.9234   21.4842 C   0  0  0  0  0  0  0  0  0  0  0  0
   -8.0333    6.5840   21.3324 C   0  0  0  0  0  0  0  0  0  0  0  0
   -8.3733    5.3766   20.7222 C   0  0  0  0  0  0  0  0  0  0  0  0
   -7.3720    4.5221   20.2576 C   0  0  0  0  0  0  0  0  0  0  0  0
   -6.0278    4.8718   20.3978 C   0  0  0  0  0  0  0  0  0  0  0  0
   -5.6788    6.0773   21.0074 C   0  0  0  0  0  0  0  0  0  0  0  0
   -7.6148    9.8617   24.1559 N   0  0  0  0  0  0  0  0  0  0  0  0
   -8.2904    9.6043   25.2642 C   0  0  0  0  0  0  0  0  0  0  0  0
   -8.8746   10.6014   26.1692 C   0  0  0  0  0  0  0  0  0  0  0  0
   -9.9147   10.2163   27.0293 C   0  0  0  0  0  0  0  0  0  0  0  0
  -10.5159   11.1377   27.8904 C   0  0  0  0  0  0  0  0  0  0  0  0
  -10.0831   12.4606   27.9055 C   0  0  0  0  0  0  0  0  0  0  0  0
   -9.0485   12.8604   27.0634 C   0  0  0  0  0  0  0  0  0  0  0  0
   -8.4469   11.9377   26.2010 C   0  0  0  0  0  0  0  0  0  0  0  0
   -8.3471    8.2435   25.4633 N   0  0  0  0  0  0  0  0  0  0  0  0
   -8.8011    7.7709   26.2299 H   0  0  0  0  0  0  0  0  0  0  0  0
   -9.5112    1.1297   25.8900 C   0  0  0  0  0  0  0  0  0  0  0  0
  -10.0274   -0.1688   25.7965 C   0  0  0  0  0  0  0  0  0  0  0  0
  -11.4017   -0.3862   25.6543 C   0  0  0  0  0  0  0  0  0  0  0  0
  -11.9416   -1.7831   25.5759 C   0  0  0  0  0  0  0  0  0  0  0  0
  -12.2606    0.7165   25.6338 C   0  0  0  0  0  0  0  0  0  0  0  0
  -10.6151    4.2818   25.7843 H   0  0  0  0  0  0  0  0  0  0  0  0
   -7.9946    5.9289   26.9195 H   0  0  0  0  0  0  0  0  0  0  0  0
   -9.4717    5.9681   25.9278 H   0  0  0  0  0  0  0  0  0  0  0  0
   -8.8181    7.2483   21.6873 H   0  0  0  0  0  0  0  0  0  0  0  0
   -9.4190    5.1023   20.6052 H   0  0  0  0  0  0  0  0  0  0  0  0
   -7.6403    3.5824   19.7805 H   0  0  0  0  0  0  0  0  0  0  0  0
   -5.2524    4.2054   20.0273 H   0  0  0  0  0  0  0  0  0  0  0  0
   -4.6292    6.3462   21.1034 H   0  0  0  0  0  0  0  0  0  0  0  0
  -10.2682    9.1862   27.0279 H   0  0  0  0  0  0  0  0  0  0  0  0
  -11.3229   10.8198   28.5453 H   0  0  0  0  0  0  0  0  0  0  0  0
  -10.5516   13.1792   28.5730 H   0  0  0  0  0  0  0  0  0  0  0  0
   -8.7096   13.8935   27.0756 H   0  0  0  0  0  0  0  0  0  0  0  0
   -7.6449   12.2947   25.5625 H   0  0  0  0  0  0  0  0  0  0  0  0
   -8.4349    1.2385   25.9822 H   0  0  0  0  0  0  0  0  0  0  0  0
   -9.3388   -1.0116   25.8299 H   0  0  0  0  0  0  0  0  0  0  0  0
  -12.9416   -1.7963   25.1298 H   0  0  0  0  0  0  0  0  0  0  0  0
  -11.9998   -2.2194   26.5776 H   0  0  0  0  0  0  0  0  0  0  0  0
  -11.2980   -2.4094   24.9492 H   0  0  0  0  0  0  0  0  0  0  0  0
  -13.3343    0.5689   25.5428 H   0  0  0  0  0  0  0  0  0  0  0  0
  1  2  1  0  0  0  0
  2  3  2  0  0  0  0
  2 34  1  0  0  0  0
  3  4  1  0  0  0  0
  3 30  1  0  0  0  0
  4 35  1  0  0  0  0
  4  5  1  0  0  0  0
  5  6  2  0  0  0  0
  5  7  1  0  0  0  0
  7  8  1  0  0  0  0
  7 36  1  0  0  0  0
  7 37  1  0  0  0  0
  8  9  1  0  0  0  0
  9 10  2  0  0  0  0
  9 28  1  0  0  0  0
 10 11  1  0  0  0  0
 10 20  1  0  0  0  0
 11 12  2  0  0  0  0
 11 13  2  0  0  0  0
 11 14  1  0  0  0  0
 14 15  2  0  0  0  0
 14 19  1  0  0  0  0
 15 38  1  0  0  0  0
 15 16  1  0  0  0  0
 16 39  1  0  0  0  0
 16 17  2  0  0  0  0
 17 40  1  0  0  0  0
 17 18  1  0  0  0  0
 18 19  2  0  0  0  0
 18 41  1  0  0  0  0
 19 42  1  0  0  0  0
 20 21  2  0  0  0  0
 21 28  1  0  0  0  0
 21 22  1  0  0  0  0
 22 23  2  0  0  0  0
 22 27  1  0  0  0  0
 23 24  1  0  0  0  0
 23 43  1  0  0  0  0
 24 44  1  0  0  0  0
 24 25  2  0  0  0  0
 25 26  1  0  0  0  0
 25 45  1  0  0  0  0
 26 27  2  0  0  0  0
 26 46  1  0  0  0  0
 27 47  1  0  0  0  0
 28 29  1  0  0  0  0
 30 31  2  0  0  0  0
 30 48  1  0  0  0  0
 31 49  1  0  0  0  0
 31 32  1  0  0  0  0
 32 33  1  0  0  0  0
 32 34  2  0  0  0  0
 33 50  1  0  0  0  0
 33 52  1  0  0  0  0
 33 51  1  0  0  0  0
 34 53  1  0  0  0  0
M  END
$$$$
