*****_entry_00001_conf_01
 OpenBabel06232217283D

 48 50  0  0  0  0  0  0  0  0999 V2000
  -11.5298   -4.7052   28.7177 Cl  0  0  0  0  0  0  0  0  0  0  0  0
  -12.1082   -3.0855   28.2385 C   0  0  0  0  0  0  0  0  0  0  0  0
  -10.9238   -2.1415   28.0461 C   0  0  0  0  0  0  0  0  0  0  0  0
  -11.3255   -0.7485   27.6219 N   0  0  0  0  0  0  0  0  0  0  0  0
  -11.8971   -0.6952   25.9881 S   0  0  0  0  0  0  0  0  0  0  0  0
  -10.9649   -1.4616   25.1848 O   0  0  0  0  0  0  0  0  0  0  0  0
  -13.3115   -0.9736   25.9549 O   0  0  0  0  0  0  0  0  0  0  0  0
  -11.6927    1.0300   25.6051 C   0  0  0  0  0  0  0  0  0  0  0  0
  -10.4186    1.6032   25.5948 C   0  0  0  0  0  0  0  0  0  0  0  0
  -10.2918    2.9858   25.4486 C   0  0  0  0  0  0  0  0  0  0  0  0
  -11.4373    3.7856   25.3062 C   0  0  0  0  0  0  0  0  0  0  0  0
  -11.3777    5.2769   25.3742 C   0  0  0  0  0  0  0  0  0  0  0  0
  -12.3509    5.8858   25.7956 O   0  0  0  0  0  0  0  0  0  0  0  0
  -10.1598    5.7954   25.0017 N   0  0  0  0  0  0  0  0  0  0  0  0
   -9.7903    7.0897   25.2344 C   0  0  0  0  0  0  0  0  0  0  0  0
   -8.1872    7.4098   24.7486 S   0  0  0  0  0  0  0  0  0  0  0  0
   -8.3454    9.0208   25.3302 C   0  0  0  0  0  0  0  0  0  0  0  0
   -9.6220    9.1818   25.8745 C   0  0  0  0  0  0  0  0  0  0  0  0
  -10.4458    8.0692   25.7935 N   0  0  0  0  0  0  0  0  0  0  0  0
   -9.9574   10.4265   26.4470 C   0  0  0  0  0  0  0  0  0  0  0  0
   -9.0208   11.4739   26.4640 C   0  0  0  0  0  0  0  0  0  0  0  0
   -9.3867   12.8045   27.0541 C   0  0  0  0  0  0  0  0  0  0  0  0
   -7.7664   11.2874   25.8778 C   0  0  0  0  0  0  0  0  0  0  0  0
   -7.4054   10.0617   25.3106 C   0  0  0  0  0  0  0  0  0  0  0  0
  -12.6990    3.1848   25.2010 C   0  0  0  0  0  0  0  0  0  0  0  0
  -12.8302    1.8042   25.3548 C   0  0  0  0  0  0  0  0  0  0  0  0
  -12.2148   -0.0720   28.6260 C   0  0  0  0  0  0  0  0  0  0  0  0
  -12.2637    1.4558   28.5271 C   0  0  0  0  0  0  0  0  0  0  0  0
  -13.4021    2.1738   29.6954 Cl  0  0  0  0  0  0  0  0  0  0  0  0
  -12.7882   -2.7279   29.0162 H   0  0  0  0  0  0  0  0  0  0  0  0
  -12.6744   -3.2220   27.3142 H   0  0  0  0  0  0  0  0  0  0  0  0
  -10.2273   -2.5554   27.3069 H   0  0  0  0  0  0  0  0  0  0  0  0
  -10.3950   -2.0835   29.0023 H   0  0  0  0  0  0  0  0  0  0  0  0
   -9.5312    0.9909   25.7434 H   0  0  0  0  0  0  0  0  0  0  0  0
   -9.2967    3.4226   25.4626 H   0  0  0  0  0  0  0  0  0  0  0  0
   -9.4210    5.2041   24.6583 H   0  0  0  0  0  0  0  0  0  0  0  0
  -10.9472   10.5518   26.8770 H   0  0  0  0  0  0  0  0  0  0  0  0
  -10.1257   12.6889   27.8537 H   0  0  0  0  0  0  0  0  0  0  0  0
   -9.8005   13.4566   26.2792 H   0  0  0  0  0  0  0  0  0  0  0  0
   -8.5076   13.2885   27.4933 H   0  0  0  0  0  0  0  0  0  0  0  0
   -7.0456   12.1035   25.8622 H   0  0  0  0  0  0  0  0  0  0  0  0
   -6.4235    9.9216   24.8693 H   0  0  0  0  0  0  0  0  0  0  0  0
  -13.5869    3.7976   25.0496 H   0  0  0  0  0  0  0  0  0  0  0  0
  -13.8183    1.3489   25.3186 H   0  0  0  0  0  0  0  0  0  0  0  0
  -11.8426   -0.2987   29.6306 H   0  0  0  0  0  0  0  0  0  0  0  0
  -13.2230   -0.4959   28.5699 H   0  0  0  0  0  0  0  0  0  0  0  0
  -12.6118    1.7411   27.5290 H   0  0  0  0  0  0  0  0  0  0  0  0
  -11.2875    1.9237   28.6593 H   0  0  0  0  0  0  0  0  0  0  0  0
  1  2  1  0  0  0  0
  2  3  1  0  0  0  0
  2 30  1  0  0  0  0
  2 31  1  0  0  0  0
  3 32  1  0  0  0  0
  3 33  1  0  0  0  0
  3  4  1  0  0  0  0
  4  5  1  0  0  0  0
  4 27  1  0  0  0  0
  5  6  2  0  0  0  0
  5  7  2  0  0  0  0
  5  8  1  0  0  0  0
  8  9  2  0  0  0  0
  8 26  1  0  0  0  0
  9 10  1  0  0  0  0
  9 34  1  0  0  0  0
 10 11  2  0  0  0  0
 10 35  1  0  0  0  0
 11 12  1  0  0  0  0
 11 25  1  0  0  0  0
 12 13  2  0  0  0  0
 12 14  1  0  0  0  0
 14 36  1  0  0  0  0
 14 15  1  0  0  0  0
 15 16  1  0  0  0  0
 15 19  2  0  0  0  0
 16 17  1  0  0  0  0
 17 18  2  0  0  0  0
 17 24  1  0  0  0  0
 18 19  1  0  0  0  0
 18 20  1  0  0  0  0
 20 37  1  0  0  0  0
 20 21  2  0  0  0  0
 21 22  1  0  0  0  0
 21 23  1  0  0  0  0
 22 38  1  0  0  0  0
 22 39  1  0  0  0  0
 22 40  1  0  0  0  0
 23 24  2  0  0  0  0
 23 41  1  0  0  0  0
 24 42  1  0  0  0  0
 25 26  2  0  0  0  0
 25 43  1  0  0  0  0
 26 44  1  0  0  0  0
 27 45  1  0  0  0  0
 27 28  1  0  0  0  0
 27 46  1  0  0  0  0
 28 29  1  0  0  0  0
 28 47  1  0  0  0  0
 28 48  1  0  0  0  0
M  END
$$$$
