*****_entry_00001_conf_01
 OpenBabel06232217283D

 44 47  0  0  1  0  0  0  0  0999 V2000
   -9.1237   12.9715   27.5063 Br  0  0  0  0  0  0  0  0  0  0  0  0
   -8.2734   11.7432   26.3448 C   0  0  0  0  0  0  0  0  0  0  0  0
   -7.0300   12.0684   25.8041 C   0  0  0  0  0  0  0  0  0  0  0  0
   -6.4358   11.1182   24.9647 C   0  0  0  0  0  0  0  0  0  0  0  0
   -5.2338   11.1238   24.3223 N   0  0  0  0  0  0  0  0  0  0  0  0
   -4.5316   11.8544   24.3273 H   0  0  0  0  0  0  0  0  0  0  0  0
   -4.9632   10.0002   23.6530 N   0  0  0  0  0  0  0  0  0  0  0  0
   -6.0717    9.2530   23.7736 C   0  0  0  0  0  0  0  0  0  0  0  0
   -6.1154    8.0146   23.1421 N   0  0  0  0  0  0  0  0  0  0  0  0
   -5.0334    7.3574   22.5622 C   0  0  0  0  0  0  0  0  0  0  0  0
   -3.8624    7.6877   22.5142 O   0  0  0  0  0  0  0  0  0  0  0  0
   -5.5253    6.0130   22.0654 C   0  0  0  0  0  0  0  0  0  0  0  0
   -7.0463    6.1623   22.0570 C   0  0  2  0  0  0  0  0  0  0  0  0
   -7.5564    6.6793   20.7139 C   0  0  0  0  0  0  0  0  0  0  0  0
   -6.7827    6.9270   19.7842 O   0  0  0  0  0  0  0  0  0  0  0  0
   -8.8803    6.8974   20.4864 N   0  0  0  0  0  0  0  0  0  0  0  0
   -9.9109    6.6658   21.3461 C   0  0  0  0  0  0  0  0  0  0  0  0
  -11.4402    7.1590   20.7818 S   0  0  0  0  0  0  0  0  0  0  0  0
  -12.0609    6.7228   22.3317 C   0  0  0  0  0  0  0  0  0  0  0  0
  -13.4953    6.9501   22.7271 C   0  0  0  0  0  0  0  0  0  0  0  0
  -13.6157    7.8223   23.9772 C   0  0  0  0  0  0  0  0  0  0  0  0
  -14.3228    7.5170   21.5756 C   0  0  0  0  0  0  0  0  0  0  0  0
  -11.1551    6.1881   23.1278 N   0  0  0  0  0  0  0  0  0  0  0  0
   -9.9035    6.1504   22.5486 N   0  0  0  0  0  0  0  0  0  0  0  0
   -7.2791    7.1611   23.1749 C   0  0  0  0  0  0  0  0  0  0  0  0
   -7.0237    9.8981   24.6311 C   0  0  0  0  0  0  0  0  0  0  0  0
   -8.2750    9.5987   25.2085 C   0  0  0  0  0  0  0  0  0  0  0  0
   -8.8895   10.5291   26.0592 C   0  0  0  0  0  0  0  0  0  0  0  0
   -6.5373   13.0069   26.0327 H   0  0  0  0  0  0  0  0  0  0  0  0
   -5.2135    5.2538   22.7913 H   0  0  0  0  0  0  0  0  0  0  0  0
   -5.0926    5.7837   21.0883 H   0  0  0  0  0  0  0  0  0  0  0  0
   -7.5171    5.1920   22.2441 H   0  0  0  0  0  0  0  0  0  0  0  0
   -9.1052    7.2960   19.5855 H   0  0  0  0  0  0  0  0  0  0  0  0
  -13.9169    5.9680   22.9784 H   0  0  0  0  0  0  0  0  0  0  0  0
  -13.2826    8.8491   23.7939 H   0  0  0  0  0  0  0  0  0  0  0  0
  -13.0134    7.4165   24.7970 H   0  0  0  0  0  0  0  0  0  0  0  0
  -14.6558    7.8688   24.3163 H   0  0  0  0  0  0  0  0  0  0  0  0
  -13.9924    8.5210   21.2904 H   0  0  0  0  0  0  0  0  0  0  0  0
  -15.3793    7.5829   21.8560 H   0  0  0  0  0  0  0  0  0  0  0  0
  -14.2497    6.8762   20.6909 H   0  0  0  0  0  0  0  0  0  0  0  0
   -7.3093    6.6577   24.1479 H   0  0  0  0  0  0  0  0  0  0  0  0
   -8.1802    7.7657   23.0501 H   0  0  0  0  0  0  0  0  0  0  0  0
   -8.7693    8.6493   25.0234 H   0  0  0  0  0  0  0  0  0  0  0  0
   -9.8516   10.2810   26.4967 H   0  0  0  0  0  0  0  0  0  0  0  0
  1  2  1  0  0  0  0
  2  3  2  0  0  0  0
  2 28  1  0  0  0  0
  3 29  1  0  0  0  0
  3  4  1  0  0  0  0
  4  5  1  0  0  0  0
  4 26  2  0  0  0  0
  5  6  1  0  0  0  0
  5  7  1  0  0  0  0
  7  8  2  0  0  0  0
  8 26  1  0  0  0  0
  8  9  1  0  0  0  0
  9 25  1  0  0  0  0
  9 10  1  0  0  0  0
 10 12  1  0  0  0  0
 10 11  2  0  0  0  0
 12 13  1  0  0  0  0
 12 31  1  0  0  0  0
 12 30  1  0  0  0  0
 13 14  1  0  0  0  0
 13 25  1  0  0  0  0
 13 32  1  1  0  0  0
 14 16  1  0  0  0  0
 14 15  2  0  0  0  0
 16 17  1  0  0  0  0
 16 33  1  0  0  0  0
 17 18  1  0  0  0  0
 17 24  2  0  0  0  0
 18 19  1  0  0  0  0
 19 23  2  0  0  0  0
 19 20  1  0  0  0  0
 20 21  1  0  0  0  0
 20 22  1  0  0  0  0
 20 34  1  0  0  0  0
 21 37  1  0  0  0  0
 21 35  1  0  0  0  0
 21 36  1  0  0  0  0
 22 38  1  0  0  0  0
 22 39  1  0  0  0  0
 22 40  1  0  0  0  0
 23 24  1  0  0  0  0
 25 42  1  0  0  0  0
 25 41  1  0  0  0  0
 26 27  1  0  0  0  0
 27 28  2  0  0  0  0
 27 43  1  0  0  0  0
 28 44  1  0  0  0  0
M  END
$$$$
