*****_entry_00001_conf_01
 OpenBabel06232217283D

 60 64  0  0  1  0  0  0  0  0999 V2000
   -5.2650    6.7763   21.2064 F   0  0  0  0  0  0  0  0  0  0  0  0
   -6.0776    6.7733   22.2707 C   0  0  0  0  0  0  0  0  0  0  0  0
   -7.3806    7.2289   22.1447 C   0  0  0  0  0  0  0  0  0  0  0  0
   -8.2270    7.2293   23.2592 C   0  0  0  0  0  0  0  0  0  0  0  0
   -7.7896    6.7519   24.5106 C   0  0  0  0  0  0  0  0  0  0  0  0
   -8.6825    6.7524   25.7710 C   0  0  1  0  0  0  0  0  0  0  0  0
   -9.8688    7.6417   25.6281 N   0  0  0  0  0  0  0  0  0  0  0  0
   -9.7869    9.0355   26.0519 C   0  0  0  0  0  0  0  0  0  0  0  0
   -8.5628    9.7160   26.1602 C   0  0  0  0  0  0  0  0  0  0  0  0
   -8.4694   11.0557   26.5777 C   0  0  0  0  0  0  0  0  0  0  0  0
   -9.6109   11.7738   26.8955 C   0  0  0  0  0  0  0  0  0  0  0  0
   -9.6613   13.0770   27.2996 O   0  0  0  0  0  0  0  0  0  0  0  0
   -8.4319   13.7937   27.2949 C   0  0  0  0  0  0  0  0  0  0  0  0
  -10.8384   11.1294   26.8048 C   0  0  0  0  0  0  0  0  0  0  0  0
  -10.9247    9.7847   26.4023 C   0  0  0  0  0  0  0  0  0  0  0  0
  -11.0140    7.1034   24.9963 C   0  0  0  0  0  0  0  0  0  0  0  0
  -12.0750    7.6782   24.7682 O   0  0  0  0  0  0  0  0  0  0  0  0
  -10.8575    5.6937   24.4609 C   0  0  0  0  0  0  0  0  0  0  0  0
  -10.2545    4.7344   25.4594 C   0  0  0  0  0  0  0  0  0  0  0  0
   -9.1030    5.3407   26.2671 C   0  0  2  0  0  0  0  0  0  0  0  0
   -9.4922    5.4327   27.7523 C   0  0  0  0  0  0  0  0  0  0  0  0
   -9.4446    6.5144   28.3488 O   0  0  0  0  0  0  0  0  0  0  0  0
   -9.8903    4.3532   28.4823 N   0  0  0  0  0  0  0  0  0  0  0  0
  -10.0649    3.0732   28.0508 C   0  0  0  0  0  0  0  0  0  0  0  0
  -10.9730    2.0753   29.0923 S   0  0  0  0  0  0  0  0  0  0  0  0
  -10.8499    0.7854   27.9491 C   0  0  0  0  0  0  0  0  0  0  0  0
  -10.0866    1.2246   26.8668 C   0  0  0  0  0  0  0  0  0  0  0  0
   -9.6375    2.5279   26.9479 N   0  0  0  0  0  0  0  0  0  0  0  0
   -9.8418    0.3404   25.8005 C   0  0  0  0  0  0  0  0  0  0  0  0
  -10.3529   -0.9591   25.8396 C   0  0  0  0  0  0  0  0  0  0  0  0
  -11.1081   -1.3884   26.9273 C   0  0  0  0  0  0  0  0  0  0  0  0
  -11.6486   -2.6400   27.0623 O   0  0  0  0  0  0  0  0  0  0  0  0
  -11.5529   -3.2372   28.3521 C   0  0  0  0  0  0  0  0  0  0  0  0
  -11.3780   -0.5159   27.9923 C   0  0  0  0  0  0  0  0  0  0  0  0
   -6.4548    6.3199   24.6002 C   0  0  0  0  0  0  0  0  0  0  0  0
   -5.6038    6.3243   23.4920 C   0  0  0  0  0  0  0  0  0  0  0  0
   -7.7331    7.5890   21.1833 H   0  0  0  0  0  0  0  0  0  0  0  0
   -9.2356    7.6141   23.1214 H   0  0  0  0  0  0  0  0  0  0  0  0
   -8.0446    7.1370   26.5690 H   0  0  0  0  0  0  0  0  0  0  0  0
   -7.6137    9.2450   25.9344 H   0  0  0  0  0  0  0  0  0  0  0  0
   -7.4783   11.4936   26.6359 H   0  0  0  0  0  0  0  0  0  0  0  0
   -8.6391   14.8167   27.6234 H   0  0  0  0  0  0  0  0  0  0  0  0
   -8.0074   13.8490   26.2868 H   0  0  0  0  0  0  0  0  0  0  0  0
   -7.7189   13.3545   28.0006 H   0  0  0  0  0  0  0  0  0  0  0  0
  -11.7471   11.6727   27.0540 H   0  0  0  0  0  0  0  0  0  0  0  0
  -11.9286    9.3787   26.3917 H   0  0  0  0  0  0  0  0  0  0  0  0
  -10.2639    5.7321   23.5421 H   0  0  0  0  0  0  0  0  0  0  0  0
  -11.8462    5.3203   24.1677 H   0  0  0  0  0  0  0  0  0  0  0  0
   -9.8841    3.8601   24.9079 H   0  0  0  0  0  0  0  0  0  0  0  0
  -11.0427    4.3429   26.1139 H   0  0  0  0  0  0  0  0  0  0  0  0
   -8.2900    4.6230   26.1681 H   0  0  0  0  0  0  0  0  0  0  0  0
  -10.1596    4.5600   29.4352 H   0  0  0  0  0  0  0  0  0  0  0  0
   -9.2590    0.6686   24.9465 H   0  0  0  0  0  0  0  0  0  0  0  0
  -10.1428   -1.6050   24.9930 H   0  0  0  0  0  0  0  0  0  0  0  0
  -12.1125   -4.1766   28.3308 H   0  0  0  0  0  0  0  0  0  0  0  0
  -12.0040   -2.5978   29.1190 H   0  0  0  0  0  0  0  0  0  0  0  0
  -10.5126   -3.4743   28.5993 H   0  0  0  0  0  0  0  0  0  0  0  0
  -11.9773   -0.8474   28.8353 H   0  0  0  0  0  0  0  0  0  0  0  0
   -6.0520    5.9836   25.5469 H   0  0  0  0  0  0  0  0  0  0  0  0
   -4.5761    5.9870   23.5789 H   0  0  0  0  0  0  0  0  0  0  0  0
  1  2  1  0  0  0  0
  2  3  2  0  0  0  0
  2 36  1  0  0  0  0
  3  4  1  0  0  0  0
  3 37  1  0  0  0  0
  4 38  1  0  0  0  0
  4  5  2  0  0  0  0
  5  6  1  0  0  0  0
  5 35  1  0  0  0  0
  6  7  1  0  0  0  0
  6 39  1  0  0  0  0
  6 20  1  1  0  0  0
  7 16  1  0  0  0  0
  7  8  1  0  0  0  0
  8  9  2  0  0  0  0
  8 15  1  0  0  0  0
  9 10  1  0  0  0  0
  9 40  1  0  0  0  0
 10 11  2  0  0  0  0
 10 41  1  0  0  0  0
 11 14  1  0  0  0  0
 11 12  1  0  0  0  0
 12 13  1  0  0  0  0
 13 43  1  0  0  0  0
 13 42  1  0  0  0  0
 13 44  1  0  0  0  0
 14 15  2  0  0  0  0
 14 45  1  0  0  0  0
 15 46  1  0  0  0  0
 16 17  2  0  0  0  0
 16 18  1  0  0  0  0
 18 47  1  0  0  0  0
 18 19  1  0  0  0  0
 18 48  1  0  0  0  0
 19 49  1  0  0  0  0
 19 50  1  0  0  0  0
 19 20  1  0  0  0  0
 20 21  1  0  0  0  0
 20 51  1  6  0  0  0
 21 22  2  0  0  0  0
 21 23  1  0  0  0  0
 23 52  1  0  0  0  0
 23 24  1  0  0  0  0
 24 25  1  0  0  0  0
 24 28  2  0  0  0  0
 25 26  1  0  0  0  0
 26 27  2  0  0  0  0
 26 34  1  0  0  0  0
 27 28  1  0  0  0  0
 27 29  1  0  0  0  0
 29 30  2  0  0  0  0
 29 53  1  0  0  0  0
 30 31  1  0  0  0  0
 30 54  1  0  0  0  0
 31 34  2  0  0  0  0
 31 32  1  0  0  0  0
 32 33  1  0  0  0  0
 33 55  1  0  0  0  0
 33 57  1  0  0  0  0
 33 56  1  0  0  0  0
 34 58  1  0  0  0  0
 35 36  2  0  0  0  0
 35 59  1  0  0  0  0
 36 60  1  0  0  0  0
M  END
$$$$
