*****_entry_00001_conf_01
 OpenBabel06232217283D

 61 64  0  0  0  0  0  0  0  0999 V2000
  -12.0961   -0.7406   25.3245 Cl  0  0  0  0  0  0  0  0  0  0  0  0
  -12.0695    0.3754   26.6457 C   0  0  0  0  0  0  0  0  0  0  0  0
  -12.1932   -0.0550   27.9706 C   0  0  0  0  0  0  0  0  0  0  0  0
  -12.3349   -1.4025   28.1712 O   0  0  0  0  0  0  0  0  0  0  0  0
  -11.4227   -2.2683   27.5103 C   0  0  0  0  0  0  0  0  0  0  0  0
  -12.1240    0.8979   28.9921 C   0  0  0  0  0  0  0  0  0  0  0  0
  -11.9708    2.2665   28.7016 C   0  0  0  0  0  0  0  0  0  0  0  0
  -11.7111    3.1653   29.7021 O   0  0  0  0  0  0  0  0  0  0  0  0
  -10.4452    3.8144   29.6255 C   0  0  0  0  0  0  0  0  0  0  0  0
  -11.8935    2.6946   27.3668 C   0  0  0  0  0  0  0  0  0  0  0  0
  -11.7440    4.0286   26.9292 N   0  0  0  0  0  0  0  0  0  0  0  0
  -11.5609    4.5182   25.6481 C   0  0  0  0  0  0  0  0  0  0  0  0
  -11.2933    3.8671   24.6433 O   0  0  0  0  0  0  0  0  0  0  0  0
  -11.6033    6.0410   25.5955 C   0  0  0  0  0  0  0  0  0  0  0  0
  -10.2358    6.7161   24.6150 S   0  0  0  0  0  0  0  0  0  0  0  0
   -9.9648    8.3078   25.3694 C   0  0  0  0  0  0  0  0  0  0  0  0
   -8.7208    8.9963   25.2154 N   0  0  0  0  0  0  0  0  0  0  0  0
   -7.6247    8.3999   24.5021 C   0  0  0  0  0  0  0  0  0  0  0  0
   -6.8525    9.1604   23.6065 C   0  0  0  0  0  0  0  0  0  0  0  0
   -5.7598    8.5952   22.9393 C   0  0  0  0  0  0  0  0  0  0  0  0
   -5.4255    7.2539   23.1277 C   0  0  0  0  0  0  0  0  0  0  0  0
   -4.3479    6.8200   22.4063 O   0  0  0  0  0  0  0  0  0  0  0  0
   -4.5170    6.7167   20.9924 C   0  0  0  0  0  0  0  0  0  0  0  0
   -5.7179    5.8296   20.7175 C   0  0  0  0  0  0  0  0  0  0  0  0
   -6.1856    6.4856   24.0063 C   0  0  0  0  0  0  0  0  0  0  0  0
   -7.2573    7.0596   24.7035 C   0  0  0  0  0  0  0  0  0  0  0  0
   -8.5052   10.2895   25.7414 C   0  0  0  0  0  0  0  0  0  0  0  0
   -7.4541   11.0359   25.7980 N   0  0  0  0  0  0  0  0  0  0  0  0
   -9.6959   10.8135   26.3650 C   0  0  0  0  0  0  0  0  0  0  0  0
  -10.0711   12.0595   26.9194 C   0  0  0  0  0  0  0  0  0  0  0  0
   -9.2858   13.3175   26.9698 C   0  0  0  0  0  0  0  0  0  0  0  0
  -11.3198   12.0180   27.4155 N   0  0  0  0  0  0  0  0  0  0  0  0
  -11.7202   10.7547   27.1868 N   0  0  0  0  0  0  0  0  0  0  0  0
  -12.6437   10.4741   27.4953 H   0  0  0  0  0  0  0  0  0  0  0  0
  -10.8041   10.0158   26.4993 C   0  0  0  0  0  0  0  0  0  0  0  0
  -11.0072    8.7655   26.0275 N   0  0  0  0  0  0  0  0  0  0  0  0
  -11.9166    1.7311   26.3493 C   0  0  0  0  0  0  0  0  0  0  0  0
  -11.6198   -3.2873   27.8565 H   0  0  0  0  0  0  0  0  0  0  0  0
  -10.3863   -2.0236   27.7657 H   0  0  0  0  0  0  0  0  0  0  0  0
  -11.5798   -2.2488   26.4272 H   0  0  0  0  0  0  0  0  0  0  0  0
  -12.1352    0.5828   30.0284 H   0  0  0  0  0  0  0  0  0  0  0  0
  -10.5116    4.6937   28.9765 H   0  0  0  0  0  0  0  0  0  0  0  0
   -9.6519    3.1403   29.2831 H   0  0  0  0  0  0  0  0  0  0  0  0
  -10.1820    4.1621   30.6289 H   0  0  0  0  0  0  0  0  0  0  0  0
  -11.6756    4.7273   27.6638 H   0  0  0  0  0  0  0  0  0  0  0  0
  -11.4966    6.4163   26.6191 H   0  0  0  0  0  0  0  0  0  0  0  0
  -12.5786    6.3890   25.2403 H   0  0  0  0  0  0  0  0  0  0  0  0
   -7.0911   10.2061   23.4180 H   0  0  0  0  0  0  0  0  0  0  0  0
   -5.1667    9.2072   22.2629 H   0  0  0  0  0  0  0  0  0  0  0  0
   -3.6282    6.2650   20.5367 H   0  0  0  0  0  0  0  0  0  0  0  0
   -4.7013    7.7065   20.5590 H   0  0  0  0  0  0  0  0  0  0  0  0
   -5.5610    4.8280   21.1311 H   0  0  0  0  0  0  0  0  0  0  0  0
   -5.8972    5.7423   19.6419 H   0  0  0  0  0  0  0  0  0  0  0  0
   -6.6162    6.2357   21.1939 H   0  0  0  0  0  0  0  0  0  0  0  0
   -5.9753    5.4347   24.1765 H   0  0  0  0  0  0  0  0  0  0  0  0
   -7.8043    6.4344   25.4064 H   0  0  0  0  0  0  0  0  0  0  0  0
   -6.6470   10.5566   25.3914 H   0  0  0  0  0  0  0  0  0  0  0  0
   -8.3744   13.1811   27.5591 H   0  0  0  0  0  0  0  0  0  0  0  0
   -9.8622   14.1316   27.4223 H   0  0  0  0  0  0  0  0  0  0  0  0
   -9.0056   13.6316   25.9588 H   0  0  0  0  0  0  0  0  0  0  0  0
  -11.8308    2.0259   25.3072 H   0  0  0  0  0  0  0  0  0  0  0  0
  1  2  1  0  0  0  0
  2  3  2  0  0  0  0
  2 37  1  0  0  0  0
  3  6  1  0  0  0  0
  3  4  1  0  0  0  0
  4  5  1  0  0  0  0
  5 39  1  0  0  0  0
  5 40  1  0  0  0  0
  5 38  1  0  0  0  0
  6  7  2  0  0  0  0
  6 41  1  0  0  0  0
  7  8  1  0  0  0  0
  7 10  1  0  0  0  0
  8  9  1  0  0  0  0
  9 42  1  0  0  0  0
  9 43  1  0  0  0  0
  9 44  1  0  0  0  0
 10 37  2  0  0  0  0
 10 11  1  0  0  0  0
 11 12  1  0  0  0  0
 11 45  1  0  0  0  0
 12 13  2  0  0  0  0
 12 14  1  0  0  0  0
 14 15  1  0  0  0  0
 14 47  1  0  0  0  0
 14 46  1  0  0  0  0
 15 16  1  0  0  0  0
 16 36  2  0  0  0  0
 16 17  1  0  0  0  0
 17 18  1  0  0  0  0
 17 27  1  0  0  0  0
 18 19  2  0  0  0  0
 18 26  1  0  0  0  0
 19 48  1  0  0  0  0
 19 20  1  0  0  0  0
 20 21  2  0  0  0  0
 20 49  1  0  0  0  0
 21 22  1  0  0  0  0
 21 25  1  0  0  0  0
 22 23  1  0  0  0  0
 23 50  1  0  0  0  0
 23 51  1  0  0  0  0
 23 24  1  0  0  0  0
 24 52  1  0  0  0  0
 24 54  1  0  0  0  0
 24 53  1  0  0  0  0
 25 26  2  0  0  0  0
 25 55  1  0  0  0  0
 26 56  1  0  0  0  0
 27 28  2  0  0  0  0
 27 29  1  0  0  0  0
 28 57  1  0  0  0  0
 29 35  2  0  0  0  0
 29 30  1  0  0  0  0
 30 31  1  0  0  0  0
 30 32  2  0  0  0  0
 31 60  1  0  0  0  0
 31 58  1  0  0  0  0
 31 59  1  0  0  0  0
 32 33  1  0  0  0  0
 33 35  1  0  0  0  0
 33 34  1  0  0  0  0
 35 36  1  0  0  0  0
 37 61  1  0  0  0  0
M  END
$$$$
