*****_entry_00001_conf_01
 OpenBabel06232217283D

 65 69  0  0  1  0  0  0  0  0999 V2000
  -11.4628    3.1185   25.1899 S   0  0  0  0  0  0  0  0  0  0  0  0
  -13.1602    3.7636   25.2691 C   0  0  0  0  0  0  0  0  0  0  0  0
  -13.3238    5.1166   24.5746 C   0  0  0  0  0  0  0  0  0  0  0  0
  -14.2086    5.3283   23.7416 O   0  0  0  0  0  0  0  0  0  0  0  0
  -12.4191    6.1234   24.9309 N   0  0  0  0  0  0  0  0  0  0  0  0
  -11.4642    5.9936   26.0462 C   0  0  0  0  0  0  0  0  0  0  0  0
  -10.3184    7.0262   25.9955 C   0  0  0  0  0  0  0  0  0  0  0  0
  -10.8866    8.3783   25.8647 N   0  3  0  0  0  0  0  0  0  0  0  0
  -10.0568    9.4757   26.1209 C   0  0  0  0  0  0  0  0  0  0  0  0
  -10.4141   10.5486   26.9497 C   0  0  0  0  0  0  0  0  0  0  0  0
   -9.5361   11.6183   27.1587 C   0  0  0  0  0  0  0  0  0  0  0  0
   -8.2972   11.6253   26.5320 C   0  0  0  0  0  0  0  0  0  0  0  0
   -7.4614   12.6532   26.7286 F   0  0  0  0  0  0  0  0  0  0  0  0
   -7.9156   10.5811   25.7042 C   0  0  0  0  0  0  0  0  0  0  0  0
   -8.7919    9.5124   25.5061 C   0  0  0  0  0  0  0  0  0  0  0  0
  -11.6682    8.5238   24.6160 C   0  0  0  0  0  0  0  0  0  0  0  0
  -12.8165    7.5003   24.5914 C   0  0  0  0  0  0  0  0  0  0  0  0
  -11.6650    1.6811   26.1426 C   0  0  0  0  0  0  0  0  0  0  0  0
  -11.5431    0.4977   25.6413 N   0  0  0  0  0  0  0  0  0  0  0  0
  -11.7325   -0.5515   26.5159 C   0  0  0  0  0  0  0  0  0  0  0  0
  -11.9913   -0.4126   27.8259 C   0  0  0  0  0  0  0  0  0  0  0  0
  -12.0992    0.9594   28.3605 C   0  0  0  0  0  0  0  0  0  0  0  0
  -12.2736    1.1826   29.5534 O   0  0  0  0  0  0  0  0  0  0  0  0
  -11.9746    1.9484   27.4360 N   0  0  0  0  0  0  0  0  0  0  0  0
  -12.1180   -1.5476   28.7952 C   0  0  0  0  0  0  0  0  0  0  0  0
  -12.1234   -2.9055   28.1940 N   0  3  2  0  0  0  0  0  0  0  0  0
  -11.7651   -3.8786   29.2475 C   0  0  0  0  0  0  0  0  0  0  0  0
  -12.0926   -5.3238   28.9313 C   0  0  0  0  0  0  0  0  0  0  0  0
  -13.4118   -5.7947   29.0586 C   0  0  0  0  0  0  0  0  0  0  0  0
  -13.7240   -7.1209   28.7597 C   0  0  0  0  0  0  0  0  0  0  0  0
  -12.7219   -7.9754   28.3192 C   0  0  0  0  0  0  0  0  0  0  0  0
  -13.0243   -9.2461   28.0223 F   0  0  0  0  0  0  0  0  0  0  0  0
  -11.4119   -7.5313   28.1811 C   0  0  0  0  0  0  0  0  0  0  0  0
  -11.0939   -6.2080   28.4953 C   0  0  0  0  0  0  0  0  0  0  0  0
  -11.2139   -2.9689   27.0374 C   0  0  0  0  0  0  0  0  0  0  0  0
  -11.5764   -1.9382   25.9540 C   0  0  0  0  0  0  0  0  0  0  0  0
  -13.4028    3.8802   26.3291 H   0  0  0  0  0  0  0  0  0  0  0  0
  -13.8443    3.0372   24.8204 H   0  0  0  0  0  0  0  0  0  0  0  0
  -11.0324    4.9890   26.0519 H   0  0  0  0  0  0  0  0  0  0  0  0
  -12.0392    6.1162   26.9718 H   0  0  0  0  0  0  0  0  0  0  0  0
   -9.6649    6.8021   25.1421 H   0  0  0  0  0  0  0  0  0  0  0  0
   -9.7275    6.9374   26.9149 H   0  0  0  0  0  0  0  0  0  0  0  0
  -11.3708   10.5640   27.4624 H   0  0  0  0  0  0  0  0  0  0  0  0
   -9.8124   12.4434   27.8071 H   0  0  0  0  0  0  0  0  0  0  0  0
   -6.9482   10.6035   25.2140 H   0  0  0  0  0  0  0  0  0  0  0  0
   -8.4964    8.7042   24.8406 H   0  0  0  0  0  0  0  0  0  0  0  0
  -11.0112    8.3613   23.7512 H   0  0  0  0  0  0  0  0  0  0  0  0
  -12.0999    9.5274   24.5201 H   0  0  0  0  0  0  0  0  0  0  0  0
  -13.2948    7.5213   23.6060 H   0  0  0  0  0  0  0  0  0  0  0  0
  -13.5767    7.7897   25.3282 H   0  0  0  0  0  0  0  0  0  0  0  0
  -11.9710    2.9035   27.7559 H   0  0  0  0  0  0  0  0  0  0  0  0
  -13.0497   -1.4336   29.3634 H   0  0  0  0  0  0  0  0  0  0  0  0
  -11.2860   -1.4530   29.5067 H   0  0  0  0  0  0  0  0  0  0  0  0
  -12.3012   -3.6190   30.1713 H   0  0  0  0  0  0  0  0  0  0  0  0
  -10.6970   -3.8084   29.4964 H   0  0  0  0  0  0  0  0  0  0  0  0
  -14.2008   -5.1279   29.3994 H   0  0  0  0  0  0  0  0  0  0  0  0
  -14.7387   -7.4900   28.8657 H   0  0  0  0  0  0  0  0  0  0  0  0
  -10.6476   -8.2175   27.8308 H   0  0  0  0  0  0  0  0  0  0  0  0
  -10.0666   -5.8654   28.3911 H   0  0  0  0  0  0  0  0  0  0  0  0
  -11.2707   -3.9536   26.5607 H   0  0  0  0  0  0  0  0  0  0  0  0
  -10.1740   -2.8164   27.3558 H   0  0  0  0  0  0  0  0  0  0  0  0
  -12.5138   -2.2267   25.4613 H   0  0  0  0  0  0  0  0  0  0  0  0
  -10.7908   -1.9487   25.1890 H   0  0  0  0  0  0  0  0  0  0  0  0
  -11.6358    8.4185   26.6416 H   0  0  0  0  0  0  0  0  0  0  0  0
  -13.1254   -3.1231   27.8546 H   0  0  0  0  0  0  0  0  0  0  0  0
  1  2  1  0  0  0  0
  1 18  1  0  0  0  0
  2  3  1  0  0  0  0
  2 37  1  0  0  0  0
  2 38  1  0  0  0  0
  3  4  2  0  0  0  0
  3  5  1  0  0  0  0
  5  6  1  0  0  0  0
  5 17  1  0  0  0  0
  6  7  1  0  0  0  0
  6 39  1  0  0  0  0
  6 40  1  0  0  0  0
  7  8  1  0  0  0  0
  7 41  1  0  0  0  0
  7 42  1  0  0  0  0
  8  9  1  0  0  0  0
  8 16  1  0  0  0  0
  8 64  1  0  0  0  0
  9 10  2  0  0  0  0
  9 15  1  0  0  0  0
 10 11  1  0  0  0  0
 10 43  1  0  0  0  0
 11 44  1  0  0  0  0
 11 12  2  0  0  0  0
 12 13  1  0  0  0  0
 12 14  1  0  0  0  0
 14 15  2  0  0  0  0
 14 45  1  0  0  0  0
 15 46  1  0  0  0  0
 16 17  1  0  0  0  0
 16 47  1  0  0  0  0
 16 48  1  0  0  0  0
 17 49  1  0  0  0  0
 17 50  1  0  0  0  0
 18 19  2  0  0  0  0
 18 24  1  0  0  0  0
 19 20  1  0  0  0  0
 20 21  2  0  0  0  0
 20 36  1  0  0  0  0
 21 25  1  0  0  0  0
 21 22  1  0  0  0  0
 22 23  2  0  0  0  0
 22 24  1  0  0  0  0
 24 51  1  0  0  0  0
 25 26  1  0  0  0  0
 25 52  1  0  0  0  0
 25 53  1  0  0  0  0
 26 27  1  0  0  0  0
 26 35  1  0  0  0  0
 26 65  1  6  0  0  0
 27 28  1  0  0  0  0
 27 54  1  0  0  0  0
 27 55  1  0  0  0  0
 28 29  2  0  0  0  0
 28 34  1  0  0  0  0
 29 30  1  0  0  0  0
 29 56  1  0  0  0  0
 30 57  1  0  0  0  0
 30 31  2  0  0  0  0
 31 32  1  0  0  0  0
 31 33  1  0  0  0  0
 33 34  2  0  0  0  0
 33 58  1  0  0  0  0
 34 59  1  0  0  0  0
 35 36  1  0  0  0  0
 35 60  1  0  0  0  0
 35 61  1  0  0  0  0
 36 62  1  0  0  0  0
 36 63  1  0  0  0  0
M  CHG  2   8   1  26   1
M  END
$$$$
