@<TRIPOS>MOLECULE
4NW6_Ligand
51   55    1
SMALL
USER_CHARGES


@<TRIPOS>ATOM
      1 C1        -24.2941   -0.6594  -24.7877 C.3       1 UNK         0.0000 
      2 O2        -23.8392    0.6312  -24.4007 O.3       1 UNK         0.0000 
      3 C3        -22.5078    0.8080  -24.0718 C.ar      1 UNK         0.0000 
      4 C4        -21.5360   -0.2005  -24.1671 C.ar      1 UNK         0.0000 
      5 C5        -22.1270    2.0716  -23.6076 C.ar      1 UNK         0.0000 
      6 O6        -23.0692    3.0675  -23.5111 O.3       1 UNK         0.0000 
      7 C7        -23.0961    3.9400  -24.6330 C.3       1 UNK         0.0000 
      8 C8        -20.8119    2.3200  -23.1975 C.ar      1 UNK         0.0000 
      9 O9        -20.5423    3.5711  -22.6727 O.3       1 UNK         0.0000 
     10 C10       -19.2574    3.8421  -22.1240 C.3       1 UNK         0.0000 
     11 C11       -19.8585    1.2988  -23.3227 C.ar      1 UNK         0.0000 
     12 C12       -20.2073    0.0322  -23.8125 C.ar      1 UNK         0.0000 
     13 N13       -19.3159   -1.0524  -23.9428 N.pl3     1 UNK         0.0000 
     14 C14       -17.9551   -1.1227  -23.7688 C.2       1 UNK         0.0000 
     15 O15       -17.2630    0.0364  -23.5926 O.3       1 UNK         0.0000 
     16 N16       -17.2253   -2.2190  -23.7781 N.2       1 UNK         0.0000 
     17 C17       -15.9549   -1.7610  -23.5429 C.ar      1 UNK         0.0000 
     18 C18       -14.7304   -2.4309  -23.4093 C.ar      1 UNK         0.0000 
     19 C19       -13.5835   -1.6676  -23.1804 C.ar      1 UNK         0.0000 
     20 C20       -13.6430   -0.2757  -23.0547 C.ar      1 UNK         0.0000 
     21 C21       -14.8514    0.4267  -23.1575 C.ar      1 UNK         0.0000 
     22 C22       -15.9793   -0.3643  -23.4222 C.ar      1 UNK         0.0000 
     23 C23       -14.9517    1.9059  -23.0016 C.ar      1 UNK         0.0000 
     24 C24       -14.2687    2.6174  -21.9895 C.ar      1 UNK         0.0000 
     25 N25       -13.4261    2.1564  -21.0086 N.2       1 UNK         0.0000 
     26 C26       -13.0916    3.2190  -20.3262 C.ar      1 UNK         0.0000 
     27 N27       -13.6538    4.3767  -20.7991 N.pl3     1 UNK         0.0000 
     28 C28       -14.4286    4.0280  -21.8800 C.ar      1 UNK         0.0000 
     29 C29       -15.2359    4.7613  -22.7493 C.ar      1 UNK         0.0000 
     30 C30       -15.8910    4.0387  -23.7429 C.ar      1 UNK         0.0000 
     31 C31       -15.7621    2.6576  -23.8615 C.ar      1 UNK         0.0000 
     32 H32       -25.3740   -0.6371  -24.9318 H         1 UNK         0.0000 
     33 H33       -23.8387   -0.9732  -25.7270 H         1 UNK         0.0000 
     34 H34       -24.0784   -1.4025  -24.0204 H         1 UNK         0.0000 
     35 H35       -21.8110   -1.1839  -24.5154 H         1 UNK         0.0000 
     36 H36       -23.8695    4.6939  -24.4871 H         1 UNK         0.0000 
     37 H37       -22.1453    4.4603  -24.7625 H         1 UNK         0.0000 
     38 H38       -23.3253    3.4006  -25.5538 H         1 UNK         0.0000 
     39 H39       -19.2402    4.8559  -21.7244 H         1 UNK         0.0000 
     40 H40       -19.0155    3.1617  -21.3057 H         1 UNK         0.0000 
     41 H41       -18.4840    3.7766  -22.8879 H         1 UNK         0.0000 
     42 H42       -18.8535    1.5081  -23.0085 H         1 UNK         0.0000 
     43 H43       -19.8077   -1.9137  -24.1318 H         1 UNK         0.0000 
     44 H44       -14.6631   -3.5037  -23.4754 H         1 UNK         0.0000 
     45 H45       -12.6313   -2.1676  -23.0783 H         1 UNK         0.0000 
     46 H46       -12.7259    0.2638  -22.8675 H         1 UNK         0.0000 
     47 H47       -12.4401    3.2509  -19.4653 H         1 UNK         0.0000 
     48 H48       -13.4997    5.2863  -20.3883 H         1 UNK         0.0000 
     49 H49       -15.3560    5.8304  -22.6573 H         1 UNK         0.0000 
     50 H50       -16.5317    4.5567  -24.4367 H         1 UNK         0.0000 
     51 H51       -16.3059    2.1648  -24.6541 H         1 UNK         0.0000 
@<TRIPOS>BOND
     1    1    2 1    
     2    1   32 1    
     3    1   33 1    
     4    1   34 1    
     5    2    3 1    
     6    3    4 ar   
     7    3    5 ar   
     8    4   12 ar   
     9    4   35 1    
    10    5    6 1    
    11    5    8 ar   
    12    6    7 1    
    13    7   36 1    
    14    7   37 1    
    15    7   38 1    
    16    8    9 1    
    17    8   11 ar   
    18    9   10 1    
    19   10   39 1    
    20   10   40 1    
    21   10   41 1    
    22   11   12 ar   
    23   11   42 1    
    24   12   13 1    
    25   13   14 1    
    26   13   43 1    
    27   14   15 1    
    28   14   16 2    
    29   15   22 1    
    30   16   17 1    
    31   17   18 ar   
    32   17   22 ar   
    33   18   19 ar   
    34   18   44 1    
    35   19   20 ar   
    36   19   45 1    
    37   20   21 ar   
    38   20   46 1    
    39   21   22 ar   
    40   21   23 1    
    41   23   24 ar   
    42   23   31 ar   
    43   24   25 ar   
    44   24   28 ar   
    45   25   26 ar   
    46   26   27 ar   
    47   26   47 1    
    48   27   28 ar   
    49   27   48 1    
    50   28   29 ar   
    51   29   30 ar   
    52   29   49 1    
    53   30   31 ar   
    54   30   50 1    
    55   31   51 1    
@<TRIPOS>SUBSTRUCTURE
     1 UNK         1 GROUP             0       ****    0 ROOT    
