@<TRIPOS>MOLECULE
7KK4_ligand
55   59    1
SMALL
USER_CHARGES


@<TRIPOS>ATOM
      1 C1        -11.6617   -1.8480   25.7547 C.3       1 UNK         0.0000 
      2 C2        -12.6524   -0.7185   25.7188 C.3       1 UNK         0.0000 
      3 C3        -11.1614   -0.4157   25.7177 C.3       1 UNK         0.0000 
      4 C4        -10.6054    0.1365   27.0516 C.2       1 UNK         0.0000 
      5 O5        -11.1109   -0.2553   28.1101 O.2       1 UNK         0.0000 
      6 N6         -9.4911    0.9192   27.0406 N.am      1 UNK         0.0000 
      7 C7         -9.0243    1.5127   28.2981 C.3       1 UNK         0.0000 
      8 C8         -9.6703    2.9138   28.4357 C.3       1 UNK         0.0000 
      9 C9         -9.0060    1.6690   25.8715 C.3       1 UNK         0.0000 
     10 C10        -9.5851    3.1026   25.9238 C.3       1 UNK         0.0000 
     11 N11        -9.2733    3.6986   27.2476 N.am      1 UNK         0.0000 
     12 C12        -8.8298    4.9726   27.4004 C.2       1 UNK         0.0000 
     13 O13        -8.8240    5.5697   28.4795 O.2       1 UNK         0.0000 
     14 C14        -8.2680    5.6783   26.1987 C.ar      1 UNK         0.0000 
     15 C15        -8.9449    6.7759   25.6664 C.ar      1 UNK         0.0000 
     16 C16        -7.0204    5.3170   25.6700 C.ar      1 UNK         0.0000 
     17 F17        -6.3389    4.2528   26.1595 F         1 UNK         0.0000 
     18 C18        -6.4544    6.0697   24.6418 C.ar      1 UNK         0.0000 
     19 C19        -7.1367    7.1627   24.1123 C.ar      1 UNK         0.0000 
     20 C20        -8.3901    7.5189   24.6167 C.ar      1 UNK         0.0000 
     21 C21        -9.1468    8.6949   24.0092 C.3       1 UNK         0.0000 
     22 C22        -9.7372    9.6473   25.0456 C.ar      1 UNK         0.0000 
     23 C23        -8.8884   10.6221   25.7633 C.ar      1 UNK         0.0000 
     24 C24        -7.5195   10.7946   25.5240 C.ar      1 UNK         0.0000 
     25 C25        -6.7961   11.7406   26.2499 C.ar      1 UNK         0.0000 
     26 C26        -7.4274   12.5172   27.2203 C.ar      1 UNK         0.0000 
     27 C27        -8.7897   12.3631   27.4645 C.ar      1 UNK         0.0000 
     28 C28        -9.5227   11.4160   26.7435 C.ar      1 UNK         0.0000 
     29 C29       -11.0112   11.2819   27.0124 C.ar      1 UNK         0.0000 
     30 O30       -11.6756   11.9712   27.7773 O.2       1 UNK         0.0000 
     31 N31       -11.5702   10.3018   26.2531 N.pl3     1 UNK         0.0000 
     32 N32       -10.9880    9.5074   25.2883 N.2       1 UNK         0.0000 
     33 H33       -11.5168   -2.4498   24.8606 H         1 UNK         0.0000 
     34 H34       -11.5645   -2.4392   26.6663 H         1 UNK         0.0000 
     35 H35       -13.2570   -0.5148   26.6047 H         1 UNK         0.0000 
     36 H36       -13.2139   -0.5409   24.8066 H         1 UNK         0.0000 
     37 H37       -10.7118   -0.0674   24.7936 H         1 UNK         0.0000 
     38 H38        -7.9432    1.6441   28.2278 H         1 UNK         0.0000 
     39 H39        -9.1529    0.8345   29.1341 H         1 UNK         0.0000 
     40 H40        -9.3379    3.3653   29.3719 H         1 UNK         0.0000 
     41 H41       -10.7570    2.8199   28.4657 H         1 UNK         0.0000 
     42 H42        -9.0975    1.1533   24.9184 H         1 UNK         0.0000 
     43 H43        -7.9252    1.7642   25.9926 H         1 UNK         0.0000 
     44 H44       -10.6689    3.0482   25.8135 H         1 UNK         0.0000 
     45 H45        -9.1876    3.6733   25.0847 H         1 UNK         0.0000 
     46 H46        -9.9082    7.0542   26.0722 H         1 UNK         0.0000 
     47 H47        -5.4788    5.8127   24.2580 H         1 UNK         0.0000 
     48 H48        -6.6881    7.7285   23.3092 H         1 UNK         0.0000 
     49 H49        -9.9327    8.2744   23.3782 H         1 UNK         0.0000 
     50 H50        -8.5054    9.2495   23.3236 H         1 UNK         0.0000 
     51 H51        -6.9989   10.2036   24.7847 H         1 UNK         0.0000 
     52 H52        -5.7421   11.8664   26.0595 H         1 UNK         0.0000 
     53 H53        -6.8627   13.2443   27.7835 H         1 UNK         0.0000 
     54 H54        -9.2652   12.9793   28.2146 H         1 UNK         0.0000 
     55 H55       -12.5629   10.1405   26.3740 H         1 UNK         0.0000 
@<TRIPOS>BOND
     1    1    2 1    
     2    1    3 1    
     3    1   33 1    
     4    1   34 1    
     5    2    3 1    
     6    2   35 1    
     7    2   36 1    
     8    3    4 1    
     9    3   37 1    
    10    4    5 2    
    11    4    6 am   BACKBONE|DICT|INTERRES
    12    6    7 1    
    13    6    9 1    
    14    7    8 1    
    15    7   38 1    
    16    7   39 1    
    17    8   11 1    
    18    8   40 1    
    19    8   41 1    
    20    9   10 1    
    21    9   42 1    
    22    9   43 1    
    23   10   11 1    
    24   10   44 1    
    25   10   45 1    
    26   11   12 am   BACKBONE|DICT|INTERRES
    27   12   13 2    
    28   12   14 1    
    29   14   15 ar   
    30   14   16 ar   
    31   15   20 ar   
    32   15   46 1    
    33   16   17 1    
    34   16   18 ar   
    35   18   19 ar   
    36   18   47 1    
    37   19   20 ar   
    38   19   48 1    
    39   20   21 1    
    40   21   22 1    
    41   21   49 1    
    42   21   50 1    
    43   22   23 ar   
    44   22   32 ar   
    45   23   24 ar   
    46   23   28 ar   
    47   24   25 ar   
    48   24   51 1    
    49   25   26 ar   
    50   25   52 1    
    51   26   27 ar   
    52   26   53 1    
    53   27   28 ar   
    54   27   54 1    
    55   28   29 ar   
    56   29   30 2    
    57   29   31 ar   
    58   31   32 ar   
    59   31   55 1    
@<TRIPOS>SUBSTRUCTURE
     1 UNK         1 GROUP             0       ****    0 ROOT    
